
**** 07/03/23 19:38:02 **** PSpice 22.1.0 (6 October 2022) **** ID# 0 ********

 ** Profile: "SCHEMATIC1-sim_worstCase"  [ c:\users\maria\onedrive - technical university of cluj-napoca\desktop\proiect_cad_uwu\nasc


 ****     CIRCUIT DESCRIPTION


******************************************************************************




** Creating circuit file "sim_worstCase.cir" 
** WARNING: THIS AUTOMATICALLY GENERATED FILE MAY BE OVERWRITTEN BY SUBSEQUENT SIMULATIONS

*Libraries: 
* Profile Libraries :
* Local Libraries :
* From [PSPICE NETLIST] section of C:\SPB_Data\cdssetup\OrCAD_PSpice\22.1.0\PSpice.ini file:
.lib "C:\Users\maria\OneDrive - Technical University of Cluj-Napoca\Desktop\PROIECT_CAD_UwU\NascaMarianProiectCAD-PSpiceFiles\SCHEM"
+ "ATIC1\DiodaAlbastra.lib" 
.lib "nom.lib" 

*Analysis directives: 
.TRAN  0 1000ns 0 
.WCASE TRAN V([OUT2]) YMAX VARY BOTH  HI 
.OPTIONS ADVCONV
.PROBE64 V(alias(*)) I(alias(*)) W(alias(*)) D(alias(*)) NOISE(alias(*)) 
.INC "..\SCHEMATIC1.net" 



**** INCLUDING SCHEMATIC1.net ****
* source NASCAMARIANPROIECTCAD
.EXTERNAL OUTPUT +VCC
.EXTERNAL OUTPUT -VCC
Q_Q1         N14397 N14397 +VCC Q2SA562
Q_Q2         N14486 N14397 +VCC Q2SA562
R_RezistentaSenzor         0 N14486 R_RezistentaSenzor {r} TC=0,0 
.model        R_RezistentaSenzor RES R=1 DEV=0.5% TC1=0 TC2=0
V_V1         +VCC 0 15Vdc
V_V2         -VCC 0 -15Vdc
X_U2         N15935 VREF +VCC -VCC VREF LM118
R_R6         +VCC N15935 R_R6 1.04k TC=0,0 
.model        R_R6 RES R=1 DEV=0.5% TC1=0 TC2=0
R_R7         0 N15935 R_R7 1.06k TC=0,0 
.model        R_R7 RES R=1 DEV=0.5% TC1=0 TC2=0
X_U3         N16344 N16580 +VCC -VCC N16671 LM118
R_R4         N15621 N16344 R_R4 2k TC=0,0 
.model        R_R4 RES R=1 DEV=0.5% TC1=0 TC2=0
R_R5         0 N16344  4.7k TC=0,0 
R_R3         N16580 N16671 R_R3 4.7k TC=0,0 
.model        R_R3 RES R=1 DEV=0.5% TC1=0 TC2=0
R_R2         VREF N16580 R_R2 2k TC=0,0 
.model        R_R2 RES R=1 DEV=0.5% TC1=0 TC2=0
X_U4         N14486 N15621 +VCC -VCC N15621 LM118
X_U5         N18284 N16671 +VCC -VCC OUT2 LM118
R_R11         0 N18090 R_R11 10 TC=0,0 
.model        R_R11 RES R=1 DEV=0.5% TC1=0 TC2=0
R_R10         +VCC N18090 R_R10 3.97 TC=0,0 
.model        R_R10 RES R=1 DEV=0.5% TC1=0 TC2=0
X_U6         N18090 VREF2 +VCC -VCC VREF2 LM118
R_R8         VREF2 N18284 R_R8 1k TC=0,0 
.model        R_R8 RES R=1 DEV=0.5% TC1=0 TC2=0
R_R9         N18284 OUT2 R_R9 4.27k TC=0,0 
.model        R_R9 RES R=1 DEV=0.5% TC1=0 TC2=0
V_V3         N18859 0 15V
D_D1         N18859 N18863 DiodaAlbastra 
R_RdiodaTest         0 N18863  630 TC=0,0 
R_R12         OUT2 N20331 R_R12 402 TC=0,0 
.model        R_R12 RES R=1 DEV=0.5% TC1=0 TC2=0
D_D2         N198520 0 DiodaAlbastra 
Q_Q3         N20016 N20012 0 Q2N1566
R_RLimitare         OUT2 N20012 R_RLimitare 1k TC=0,0 
.model        R_RLimitare RES R=1 DEV=0.5% TC1=0 TC2=0
R_R14         N20016 +VCC R_R14 3.4k TC=0,0 
.model        R_R14 RES R=1 DEV=0.5% TC1=0 TC2=0
R_R13         N20331 N198520 R_R13 229 TC=0,0 
.model        R_R13 RES R=1 DEV=0.5% TC1=0 TC2=0
R_R0         N204421 N14397 R_R0 20k TC=0,0 
.model        R_R0 RES R=1 DEV=0.5% TC1=0 TC2=0
R_R1         0 N204421 R_R1 6.49k TC=0,0 
.model        R_R1 RES R=1 DEV=0.5% TC1=0 TC2=0
.PARAM  r=14k

**** RESUMING sim_worstCase.cir ****
.END

**** 07/03/23 19:38:02 **** PSpice 22.1.0 (6 October 2022) **** ID# 0 ********

 ** Profile: "SCHEMATIC1-sim_worstCase"  [ c:\users\maria\onedrive - technical university of cluj-napoca\desktop\proiect_cad_uwu\nasc


 ****     Diode MODEL PARAMETERS


******************************************************************************




               DiodaAlbastra   X_U2.dx         X_U2.dy         X_U3.dx         
          IS   47.006000E-21  800.000000E-18  800.000000E-18  800.000000E-18 
           N    2.8335                                                       
          RS   15.45            1               1.000000E-03    1            
         CJO                                   10.000000E-12                 


               X_U3.dy         X_U4.dx         X_U4.dy         X_U5.dx         
          IS  800.000000E-18  800.000000E-18  800.000000E-18  800.000000E-18 
          RS    1.000000E-03    1               1.000000E-03    1            
         CJO   10.000000E-12                   10.000000E-12                 


               X_U5.dy         X_U6.dx         X_U6.dy         
          IS  800.000000E-18  800.000000E-18  800.000000E-18 
          RS    1.000000E-03    1               1.000000E-03 
         CJO   10.000000E-12                   10.000000E-12 


**** 07/03/23 19:38:02 **** PSpice 22.1.0 (6 October 2022) **** ID# 0 ********

 ** Profile: "SCHEMATIC1-sim_worstCase"  [ c:\users\maria\onedrive - technical university of cluj-napoca\desktop\proiect_cad_uwu\nasc


 ****     BJT MODEL PARAMETERS


******************************************************************************




               Q2SA562         Q2N1566         X_U2.qx         X_U3.qx         
               PNP             NPN             NPN             NPN             
       LEVEL    1               1               1               1            
          IS    2.148000E-12   14.340000E-15  800.000000E-18  800.000000E-18 
          BF  162.9           173.4             5.833000E+03    5.833000E+03 
          NF    1               1               1               1            
         VAF  100              74.03                                         
         IKF     .8773           .2689                                       
         ISE    5.013000E-12   14.340000E-15                                 
          NE    1.655           1.272                                        
          BR   10.18            6.458           1               1            
          NR    1               1               1               1            
         VAR  100                                                            
         IKR    1.838                                                        
         ISC   28.010000E-12                                                 
          NC    1.288                                                        
          NK     .5629                                                       
         ISS    0               0               0               0            
          RB                   10                                            
          RE    0               0               0               0            
          RC     .4968          1               0               0            
         CJE    5.000000E-12   22.010000E-12    0               0            
         VJE     .75             .75             .75             .75         
         MJE     .3333           .377                                        
         CJC   27.040000E-12    9.393000E-12    0               0            
         VJC     .75             .75             .75             .75         
         MJC     .3333           .3416           .33             .33         
        XCJC    1               1               1               1            
         CJS    0               0               0               0            
         VJS     .75             .75             .75             .75         
          TF  767.900000E-12  409.700000E-12                                 
         XTF                    3                                            
         VTF   10               1.7                                          
         ITF    1                .6                                          
          TR   10.000000E-09   48.390000E-09                                 
         XTB    1.5             1.5                                          
          KF    0               0               0               0            
          AF    1               1               1               1            
          CN    2.2             2.42            2.42            2.42         
           D     .52             .87             .87             .87         


               X_U4.qx         X_U5.qx         X_U6.qx         
               NPN             NPN             NPN             
       LEVEL    1               1               1            
          IS  800.000000E-18  800.000000E-18  800.000000E-18 
          BF    5.833000E+03    5.833000E+03    5.833000E+03 
          NF    1               1               1            
          BR    1               1               1            
          NR    1               1               1            
         ISS    0               0               0            
          RE    0               0               0            
          RC    0               0               0            
         CJE    0               0               0            
         VJE     .75             .75             .75         
         CJC    0               0               0            
         VJC     .75             .75             .75         
         MJC     .33             .33             .33         
        XCJC    1               1               1            
         CJS    0               0               0            
         VJS     .75             .75             .75         
          KF    0               0               0            
          AF    1               1               1            
          CN    2.42            2.42            2.42         
           D     .87             .87             .87         


**** 07/03/23 19:38:02 **** PSpice 22.1.0 (6 October 2022) **** ID# 0 ********

 ** Profile: "SCHEMATIC1-sim_worstCase"  [ c:\users\maria\onedrive - technical university of cluj-napoca\desktop\proiect_cad_uwu\nasc


 ****     Resistor MODEL PARAMETERS


******************************************************************************




               R_RezistentaSenzor              R_R6            R_R7            
           R    1                               1               1            


               R_R4            R_R3            R_R2            R_R11           
           R    1               1               1               1            


               R_R10           R_R8            R_R9            R_R12           
           R    1               1               1               1            


               R_RLimitare     R_R14           R_R13           R_R0            
           R    1               1               1               1            


               R_R1            
           R    1            


**** 07/03/23 19:38:02 **** PSpice 22.1.0 (6 October 2022) **** ID# 0 ********

 ** Profile: "SCHEMATIC1-sim_worstCase"  [ c:\users\maria\onedrive - technical university of cluj-napoca\desktop\proiect_cad_uwu\nasc


 ****     INITIAL TRANSIENT SOLUTION       TEMPERATURE =   27.000 DEG C

                      SENSITIVITY NOMINAL

******************************************************************************



 NODE   VOLTAGE     NODE   VOLTAGE     NODE   VOLTAGE     NODE   VOLTAGE


( +VCC)   15.0000  ( -VCC)  -15.0000  ( OUT2)   11.0280  ( VREF)    7.5713      

(VREF2)   10.7370  (N14397)   14.5000 (N14486)    8.0415 (N15621)    8.0414     

(N15935)    7.5714 (N16344)    5.6408 (N16580)    5.6408 (N16671)    1.1047     

(N18090)   10.7370 (N18284)   10.7920 (N18859)   15.0000 (N18863)   11.7420     

(N20012)     .8605 (N20016)     .0109 (N20331)    5.9987 (X_U2.6)    -.0480     

(X_U2.7)    7.6195 (X_U2.8)    7.6195 (X_U2.9)    0.0000 (X_U3.6)    -.0065     

(X_U3.7)    1.0564 (X_U3.8)    1.0564 (X_U3.9)    0.0000 (X_U4.6)    -.0511     

(X_U4.7)    8.1014 (X_U4.8)    8.1014 (X_U4.9)    0.0000 (X_U5.6) -146.8800     

(X_U5.7)   12.1650 (X_U5.8)   12.1650 (X_U5.9)    0.0000 (X_U6.6)    -.0675     

(X_U6.7)   10.7340 (X_U6.8)   10.7340 (X_U6.9)    0.0000 (N198520)    3.1337    

(N204421)    3.5524                   (X_U2.10)    6.8284                       

(X_U2.11)   14.9420                   (X_U2.12)   14.9420                       

(X_U2.13)    6.8592                   (X_U2.14)    6.8593                       

(X_U2.53)   13.0000                   (X_U2.54)  -13.0000                       

(X_U2.90)     .9654                   (X_U2.91)   22.0000                       

(X_U2.92)  -22.0000                   (X_U2.99)    0.0000                       

(X_U3.10)    4.8984                   (X_U3.11)   14.9430                       

(X_U3.12)   14.9430                   (X_U3.13)    4.9290                       

(X_U3.14)    4.9290                   (X_U3.53)   13.0000                       

(X_U3.54)  -13.0000                   (X_U3.90)    -.9651                       

(X_U3.91)   22.0000                   (X_U3.92)  -22.0000                       

(X_U3.99)    0.0000                   (X_U4.10)    7.2984                       

(X_U4.11)   14.9420                   (X_U4.12)   14.9420                       

(X_U4.13)    7.3293                   (X_U4.14)    7.3294                       

(X_U4.53)   13.0000                   (X_U4.54)  -13.0000                       

(X_U4.90)    1.2004                   (X_U4.91)   22.0000                       

(X_U4.92)  -22.0000                   (X_U4.99)    0.0000                       

(X_U5.10)    9.9991                   (X_U5.11)   15.0000                       

(X_U5.12)   14.8830                   (X_U5.13)    9.9991                       

(X_U5.14)   10.0620                   (X_U5.53)   13.0000                       

(X_U5.54)  -13.0000                   (X_U5.90)   22.7330                       

(X_U5.91)   22.0000                   (X_U5.92)  -22.0000                       

(X_U5.99)    0.0000                   (X_U6.10)    9.9934                       

(X_U6.11)   14.9420                   (X_U6.12)   14.9410                       

(X_U6.13)   10.0250                   (X_U6.14)   10.0250                       

(X_U6.53)   13.0000                   (X_U6.54)  -13.0000                       

(X_U6.90)    -.0549                   (X_U6.91)   22.0000                       

(X_U6.92)  -22.0000                   (X_U6.99)    0.0000                   




    VOLTAGE SOURCE CURRENTS
    NAME         CURRENT

    V_V1        -1.109E+00
    V_V2         2.250E-02
    V_V3        -1.864E-02
    X_U2.vb     -4.804E-07
    X_U2.vc      5.430E-12
    X_U2.ve      2.235E-11
    X_U2.vlim    9.654E-04
    X_U2.vlp    -2.104E-11
    X_U2.vln    -2.297E-11
    X_U3.vb     -6.487E-08
    X_U3.vc      1.190E-11
    X_U3.ve      1.588E-11
    X_U3.vlim   -9.651E-04
    X_U3.vlp    -2.297E-11
    X_U3.vln    -2.104E-11
    X_U4.vb     -5.110E-07
    X_U4.vc      4.959E-12
    X_U4.ve      2.282E-11
    X_U4.vlim    1.200E-03
    X_U4.vlp    -2.080E-11
    X_U4.vln    -2.320E-11
    X_U5.vb     -1.469E-03
    X_U5.vc      1.973E-12
    X_U5.ve      2.581E-11
    X_U5.vlim    2.273E-02
    X_U5.vlp     1.557E-03
    X_U5.vln    -4.474E-11
    X_U6.vb     -6.745E-07
    X_U6.vc      2.264E-12
    X_U6.ve      2.552E-11
    X_U6.vlim   -5.486E-05
    X_U6.vlp    -2.206E-11
    X_U6.vln    -2.195E-11

    TOTAL POWER DISSIPATION   1.72E+01  WATTS

 NODE   VOLTAGE     NODE   VOLTAGE     NODE   VOLTAGE     NODE   VOLTAGE


( +VCC)   15.0000  ( -VCC)  -15.0000  ( OUT2)   11.0280  ( VREF)    7.5713      

(VREF2)   10.7370  (N14397)   14.5000 (N14486)    8.0490 (N15621)    8.0489     

(N15935)    7.5714 (N16344)    5.6461 (N16580)    5.6460 (N16671)    1.1222     

(N18090)   10.7370 (N18284)   10.7920 (N18859)   15.0000 (N18863)   11.7420     

(N20012)     .8605 (N20016)     .0109 (N20331)    5.9987 (X_U2.6)    -.0480     

(X_U2.7)    7.6194 (X_U2.8)    7.6194 (X_U2.9)    0.0000 (X_U3.6)    -.0066     

(X_U3.7)    1.0741 (X_U3.8)    1.0741 (X_U3.9)    0.0000 (X_U4.6)    -.0511     

(X_U4.7)    8.1090 (X_U4.8)    8.1090 (X_U4.9)    0.0000 (X_U5.6) -146.8800     

(X_U5.7)   12.1650 (X_U5.8)   12.1650 (X_U5.9)    0.0000 (X_U6.6)    -.0675     

(X_U6.7)   10.7340 (X_U6.8)   10.7340 (X_U6.9)    0.0000 (N198520)    3.1337    

(N204421)    3.5524                   (X_U2.10)    6.8284                       

(X_U2.11)   14.9420                   (X_U2.12)   14.9420                       

(X_U2.13)    6.8592                   (X_U2.14)    6.8593                       

(X_U2.53)   13.0000                   (X_U2.54)  -13.0000                       

(X_U2.90)     .9628                   (X_U2.91)   22.0000                       

(X_U2.92)  -22.0000                   (X_U2.99)    0.0000                       

(X_U3.10)    4.9037                   (X_U3.11)   14.9430                       

(X_U3.12)   14.9430                   (X_U3.13)    4.9342                       

(X_U3.14)    4.9342                   (X_U3.53)   13.0000                       

(X_U3.54)  -13.0000                   (X_U3.90)    -.9625                       

(X_U3.91)   22.0000                   (X_U3.92)  -22.0000                       

(X_U3.99)    0.0000                   (X_U4.10)    7.3059                       

(X_U4.11)   14.9420                   (X_U4.12)   14.9420                       

(X_U4.13)    7.3368                   (X_U4.14)    7.3368                       

(X_U4.53)   13.0000                   (X_U4.54)  -13.0000                       

(X_U4.90)    1.2015                   (X_U4.91)   22.0000                       

(X_U4.92)  -22.0000                   (X_U4.99)    0.0000                       

(X_U5.10)    9.9991                   (X_U5.11)   15.0000                       

(X_U5.12)   14.8830                   (X_U5.13)    9.9991                       

(X_U5.14)   10.0620                   (X_U5.53)   13.0000                       

(X_U5.54)  -13.0000                   (X_U5.90)   22.7330                       

(X_U5.91)   22.0000                   (X_U5.92)  -22.0000                       

(X_U5.99)    0.0000                   (X_U6.10)    9.9934                       

(X_U6.11)   14.9420                   (X_U6.12)   14.9410                       

(X_U6.13)   10.0250                   (X_U6.14)   10.0250                       

(X_U6.53)   13.0000                   (X_U6.54)  -13.0000                       

(X_U6.90)    -.0549                   (X_U6.91)   22.0000                       

(X_U6.92)  -22.0000                   (X_U6.99)    0.0000                   




    VOLTAGE SOURCE CURRENTS
    NAME         CURRENT

    V_V1        -1.109E+00
    V_V2         2.250E-02
    V_V3        -1.864E-02
    X_U2.vb     -4.803E-07
    X_U2.vc      5.430E-12
    X_U2.ve      2.235E-11
    X_U2.vlim    9.628E-04
    X_U2.vlp    -2.104E-11
    X_U2.vln    -2.297E-11
    X_U3.vb     -6.599E-08
    X_U3.vc      1.188E-11
    X_U3.ve      1.590E-11
    X_U3.vlim   -9.625E-04
    X_U3.vlp    -2.296E-11
    X_U3.vln    -2.104E-11
    X_U4.vb     -5.115E-07
    X_U4.vc      4.952E-12
    X_U4.ve      2.283E-11
    X_U4.vlim    1.202E-03
    X_U4.vlp    -2.080E-11
    X_U4.vln    -2.320E-11
    X_U5.vb     -1.469E-03
    X_U5.vc      1.973E-12
    X_U5.ve      2.581E-11
    X_U5.vlim    2.273E-02
    X_U5.vlp     1.557E-03
    X_U5.vln    -4.474E-11
    X_U6.vb     -6.745E-07
    X_U6.vc      2.264E-12
    X_U6.ve      2.552E-11
    X_U6.vlim   -5.486E-05
    X_U6.vlp    -2.206E-11
    X_U6.vln    -2.195E-11

    TOTAL POWER DISSIPATION   1.72E+01  WATTS

 NODE   VOLTAGE     NODE   VOLTAGE     NODE   VOLTAGE     NODE   VOLTAGE


( +VCC)   15.0000  ( -VCC)  -15.0000  ( OUT2)   11.0280  ( VREF)    7.5675      

(VREF2)   10.7370  (N14397)   14.5000 (N14486)    8.0415 (N15621)    8.0414     

(N15935)    7.5676 (N16344)    5.6408 (N16580)    5.6408 (N16671)    1.1135     

(N18090)   10.7370 (N18284)   10.7920 (N18859)   15.0000 (N18863)   11.7420     

(N20012)     .8605 (N20016)     .0109 (N20331)    5.9987 (X_U2.6)    -.0480     

(X_U2.7)    7.6157 (X_U2.8)    7.6157 (X_U2.9)    0.0000 (X_U3.6)    -.0065     

(X_U3.7)    1.0653 (X_U3.8)    1.0653 (X_U3.9)    0.0000 (X_U4.6)    -.0511     

(X_U4.7)    8.1014 (X_U4.8)    8.1014 (X_U4.9)    0.0000 (X_U5.6) -146.8800     

(X_U5.7)   12.1650 (X_U5.8)   12.1650 (X_U5.9)    0.0000 (X_U6.6)    -.0675     

(X_U6.7)   10.7340 (X_U6.8)   10.7340 (X_U6.9)    0.0000 (N198520)    3.1337    

(N204421)    3.5524                   (X_U2.10)    6.8247                       

(X_U2.11)   14.9420                   (X_U2.12)   14.9420                       

(X_U2.13)    6.8555                   (X_U2.14)    6.8555                       

(X_U2.53)   13.0000                   (X_U2.54)  -13.0000                       

(X_U2.90)     .9635                   (X_U2.91)   22.0000                       

(X_U2.92)  -22.0000                   (X_U2.99)    0.0000                       

(X_U3.10)    4.8984                   (X_U3.11)   14.9430                       

(X_U3.12)   14.9430                   (X_U3.13)    4.9290                       

(X_U3.14)    4.9290                   (X_U3.53)   13.0000                       

(X_U3.54)  -13.0000                   (X_U3.90)    -.9633                       

(X_U3.91)   22.0000                   (X_U3.92)  -22.0000                       

(X_U3.99)    0.0000                   (X_U4.10)    7.2984                       

(X_U4.11)   14.9420                   (X_U4.12)   14.9420                       

(X_U4.13)    7.3293                   (X_U4.14)    7.3294                       

(X_U4.53)   13.0000                   (X_U4.54)  -13.0000                       

(X_U4.90)    1.2004                   (X_U4.91)   22.0000                       

(X_U4.92)  -22.0000                   (X_U4.99)    0.0000                       

(X_U5.10)    9.9991                   (X_U5.11)   15.0000                       

(X_U5.12)   14.8830                   (X_U5.13)    9.9991                       

(X_U5.14)   10.0620                   (X_U5.53)   13.0000                       

(X_U5.54)  -13.0000                   (X_U5.90)   22.7330                       

(X_U5.91)   22.0000                   (X_U5.92)  -22.0000                       

(X_U5.99)    0.0000                   (X_U6.10)    9.9934                       

(X_U6.11)   14.9420                   (X_U6.12)   14.9410                       

(X_U6.13)   10.0250                   (X_U6.14)   10.0250                       

(X_U6.53)   13.0000                   (X_U6.54)  -13.0000                       

(X_U6.90)    -.0549                   (X_U6.91)   22.0000                       

(X_U6.92)  -22.0000                   (X_U6.99)    0.0000                   




    VOLTAGE SOURCE CURRENTS
    NAME         CURRENT

    V_V1        -1.109E+00
    V_V2         2.250E-02
    V_V3        -1.864E-02
    X_U2.vb     -4.801E-07
    X_U2.vc      5.433E-12
    X_U2.ve      2.235E-11
    X_U2.vlim    9.635E-04
    X_U2.vlp    -2.104E-11
    X_U2.vln    -2.297E-11
    X_U3.vb     -6.543E-08
    X_U3.vc      1.189E-11
    X_U3.ve      1.589E-11
    X_U3.vlim   -9.633E-04
    X_U3.vlp    -2.296E-11
    X_U3.vln    -2.104E-11
    X_U4.vb     -5.110E-07
    X_U4.vc      4.959E-12
    X_U4.ve      2.282E-11
    X_U4.vlim    1.200E-03
    X_U4.vlp    -2.080E-11
    X_U4.vln    -2.320E-11
    X_U5.vb     -1.469E-03
    X_U5.vc      1.973E-12
    X_U5.ve      2.581E-11
    X_U5.vlim    2.273E-02
    X_U5.vlp     1.557E-03
    X_U5.vln    -4.474E-11
    X_U6.vb     -6.745E-07
    X_U6.vc      2.264E-12
    X_U6.ve      2.552E-11
    X_U6.vlim   -5.486E-05
    X_U6.vlp    -2.206E-11
    X_U6.vln    -2.195E-11

    TOTAL POWER DISSIPATION   1.72E+01  WATTS

 NODE   VOLTAGE     NODE   VOLTAGE     NODE   VOLTAGE     NODE   VOLTAGE


( +VCC)   15.0000  ( -VCC)  -15.0000  ( OUT2)   11.0280  ( VREF)    7.5750      

(VREF2)   10.7370  (N14397)   14.5000 (N14486)    8.0415 (N15621)    8.0414     

(N15935)    7.5751 (N16344)    5.6408 (N16580)    5.6408 (N16671)    1.0959     

(N18090)   10.7370 (N18284)   10.7920 (N18859)   15.0000 (N18863)   11.7420     

(N20012)     .8605 (N20016)     .0109 (N20331)    5.9987 (X_U2.6)    -.0481     

(X_U2.7)    7.6234 (X_U2.8)    7.6234 (X_U2.9)    0.0000 (X_U3.6)    -.0064     

(X_U3.7)    1.0475 (X_U3.8)    1.0475 (X_U3.9)    0.0000 (X_U4.6)    -.0511     

(X_U4.7)    8.1014 (X_U4.8)    8.1014 (X_U4.9)    0.0000 (X_U5.6) -146.8800     

(X_U5.7)   12.1650 (X_U5.8)   12.1650 (X_U5.9)    0.0000 (X_U6.6)    -.0675     

(X_U6.7)   10.7340 (X_U6.8)   10.7340 (X_U6.9)    0.0000 (N198520)    3.1337    

(N204421)    3.5524                   (X_U2.10)    6.8321                       

(X_U2.11)   14.9420                   (X_U2.12)   14.9420                       

(X_U2.13)    6.8630                   (X_U2.14)    6.8630                       

(X_U2.53)   13.0000                   (X_U2.54)  -13.0000                       

(X_U2.90)     .9672                   (X_U2.91)   22.0000                       

(X_U2.92)  -22.0000                   (X_U2.99)    0.0000                       

(X_U3.10)    4.8984                   (X_U3.11)   14.9430                       

(X_U3.12)   14.9430                   (X_U3.13)    4.9290                       

(X_U3.14)    4.9290                   (X_U3.53)   13.0000                       

(X_U3.54)  -13.0000                   (X_U3.90)    -.9670                       

(X_U3.91)   22.0000                   (X_U3.92)  -22.0000                       

(X_U3.99)    0.0000                   (X_U4.10)    7.2984                       

(X_U4.11)   14.9420                   (X_U4.12)   14.9420                       

(X_U4.13)    7.3293                   (X_U4.14)    7.3294                       

(X_U4.53)   13.0000                   (X_U4.54)  -13.0000                       

(X_U4.90)    1.2004                   (X_U4.91)   22.0000                       

(X_U4.92)  -22.0000                   (X_U4.99)    0.0000                       

(X_U5.10)    9.9991                   (X_U5.11)   15.0000                       

(X_U5.12)   14.8830                   (X_U5.13)    9.9991                       

(X_U5.14)   10.0620                   (X_U5.53)   13.0000                       

(X_U5.54)  -13.0000                   (X_U5.90)   22.7330                       

(X_U5.91)   22.0000                   (X_U5.92)  -22.0000                       

(X_U5.99)    0.0000                   (X_U6.10)    9.9934                       

(X_U6.11)   14.9420                   (X_U6.12)   14.9410                       

(X_U6.13)   10.0250                   (X_U6.14)   10.0250                       

(X_U6.53)   13.0000                   (X_U6.54)  -13.0000                       

(X_U6.90)    -.0549                   (X_U6.91)   22.0000                       

(X_U6.92)  -22.0000                   (X_U6.99)    0.0000                   




    VOLTAGE SOURCE CURRENTS
    NAME         CURRENT

    V_V1        -1.109E+00
    V_V2         2.250E-02
    V_V3        -1.864E-02
    X_U2.vb     -4.806E-07
    X_U2.vc      5.426E-12
    X_U2.ve      2.236E-11
    X_U2.vlim    9.672E-04
    X_U2.vlp    -2.103E-11
    X_U2.vln    -2.297E-11
    X_U3.vb     -6.431E-08
    X_U3.vc      1.190E-11
    X_U3.ve      1.588E-11
    X_U3.vlim   -9.670E-04
    X_U3.vlp    -2.297E-11
    X_U3.vln    -2.104E-11
    X_U4.vb     -5.110E-07
    X_U4.vc      4.959E-12
    X_U4.ve      2.282E-11
    X_U4.vlim    1.200E-03
    X_U4.vlp    -2.080E-11
    X_U4.vln    -2.320E-11
    X_U5.vb     -1.469E-03
    X_U5.vc      1.973E-12
    X_U5.ve      2.581E-11
    X_U5.vlim    2.273E-02
    X_U5.vlp     1.557E-03
    X_U5.vln    -4.474E-11
    X_U6.vb     -6.745E-07
    X_U6.vc      2.264E-12
    X_U6.ve      2.552E-11
    X_U6.vlim   -5.486E-05
    X_U6.vlp    -2.206E-11
    X_U6.vln    -2.195E-11

    TOTAL POWER DISSIPATION   1.72E+01  WATTS

 NODE   VOLTAGE     NODE   VOLTAGE     NODE   VOLTAGE     NODE   VOLTAGE


( +VCC)   15.0000  ( -VCC)  -15.0000  ( OUT2)   11.0280  ( VREF)    7.5713      

(VREF2)   10.7370  (N14397)   14.5000 (N14486)    8.0415 (N15621)    8.0414     

(N15935)    7.5714 (N16344)    5.6391 (N16580)    5.6391 (N16671)    1.0990     

(N18090)   10.7370 (N18284)   10.7920 (N18859)   15.0000 (N18863)   11.7420     

(N20012)     .8605 (N20016)     .0109 (N20331)    5.9987 (X_U2.6)    -.0480     

(X_U2.7)    7.6196 (X_U2.8)    7.6196 (X_U2.9)    0.0000 (X_U3.6)    -.0065     

(X_U3.7)    1.0507 (X_U3.8)    1.0507 (X_U3.9)    0.0000 (X_U4.6)    -.0511     

(X_U4.7)    8.1014 (X_U4.8)    8.1014 (X_U4.9)    0.0000 (X_U5.6) -146.8800     

(X_U5.7)   12.1650 (X_U5.8)   12.1650 (X_U5.9)    0.0000 (X_U6.6)    -.0675     

(X_U6.7)   10.7340 (X_U6.8)   10.7340 (X_U6.9)    0.0000 (N198520)    3.1337    

(N204421)    3.5524                   (X_U2.10)    6.8284                       

(X_U2.11)   14.9420                   (X_U2.12)   14.9420                       

(X_U2.13)    6.8592                   (X_U2.14)    6.8593                       

(X_U2.53)   13.0000                   (X_U2.54)  -13.0000                       

(X_U2.90)     .9662                   (X_U2.91)   22.0000                       

(X_U2.92)  -22.0000                   (X_U2.99)    0.0000                       

(X_U3.10)    4.8967                   (X_U3.11)   14.9430                       

(X_U3.12)   14.9430                   (X_U3.13)    4.9273                       

(X_U3.14)    4.9273                   (X_U3.53)   13.0000                       

(X_U3.54)  -13.0000                   (X_U3.90)    -.9660                       

(X_U3.91)   22.0000                   (X_U3.92)  -22.0000                       

(X_U3.99)    0.0000                   (X_U4.10)    7.2984                       

(X_U4.11)   14.9420                   (X_U4.12)   14.9420                       

(X_U4.13)    7.3293                   (X_U4.14)    7.3294                       

(X_U4.53)   13.0000                   (X_U4.54)  -13.0000                       

(X_U4.90)    1.2001                   (X_U4.91)   22.0000                       

(X_U4.92)  -22.0000                   (X_U4.99)    0.0000                       

(X_U5.10)    9.9991                   (X_U5.11)   15.0000                       

(X_U5.12)   14.8830                   (X_U5.13)    9.9991                       

(X_U5.14)   10.0620                   (X_U5.53)   13.0000                       

(X_U5.54)  -13.0000                   (X_U5.90)   22.7330                       

(X_U5.91)   22.0000                   (X_U5.92)  -22.0000                       

(X_U5.99)    0.0000                   (X_U6.10)    9.9934                       

(X_U6.11)   14.9420                   (X_U6.12)   14.9410                       

(X_U6.13)   10.0250                   (X_U6.14)   10.0250                       

(X_U6.53)   13.0000                   (X_U6.54)  -13.0000                       

(X_U6.90)    -.0549                   (X_U6.91)   22.0000                       

(X_U6.92)  -22.0000                   (X_U6.99)    0.0000                   




    VOLTAGE SOURCE CURRENTS
    NAME         CURRENT

    V_V1        -1.109E+00
    V_V2         2.250E-02
    V_V3        -1.864E-02
    X_U2.vb     -4.804E-07
    X_U2.vc      5.430E-12
    X_U2.ve      2.235E-11
    X_U2.vlim    9.662E-04
    X_U2.vlp    -2.103E-11
    X_U2.vln    -2.297E-11
    X_U3.vb     -6.451E-08
    X_U3.vc      1.190E-11
    X_U3.ve      1.588E-11
    X_U3.vlim   -9.660E-04
    X_U3.vlp    -2.297E-11
    X_U3.vln    -2.104E-11
    X_U4.vb     -5.110E-07
    X_U4.vc      4.959E-12
    X_U4.ve      2.282E-11
    X_U4.vlim    1.200E-03
    X_U4.vlp    -2.080E-11
    X_U4.vln    -2.320E-11
    X_U5.vb     -1.469E-03
    X_U5.vc      1.973E-12
    X_U5.ve      2.581E-11
    X_U5.vlim    2.273E-02
    X_U5.vlp     1.557E-03
    X_U5.vln    -4.474E-11
    X_U6.vb     -6.745E-07
    X_U6.vc      2.264E-12
    X_U6.ve      2.552E-11
    X_U6.vlim   -5.486E-05
    X_U6.vlp    -2.206E-11
    X_U6.vln    -2.195E-11

    TOTAL POWER DISSIPATION   1.72E+01  WATTS

 NODE   VOLTAGE     NODE   VOLTAGE     NODE   VOLTAGE     NODE   VOLTAGE


( +VCC)   15.0000  ( -VCC)  -15.0000  ( OUT2)   11.0280  ( VREF)    7.5713      

(VREF2)   10.7370  (N14397)   14.5000 (N14486)    8.0415 (N15621)    8.0414     

(N15935)    7.5714 (N16344)    5.6408 (N16580)    5.6408 (N16671)    1.1001     

(N18090)   10.7370 (N18284)   10.7920 (N18859)   15.0000 (N18863)   11.7420     

(N20012)     .8605 (N20016)     .0109 (N20331)    5.9987 (X_U2.6)    -.0480     

(X_U2.7)    7.6195 (X_U2.8)    7.6195 (X_U2.9)    0.0000 (X_U3.6)    -.0065     

(X_U3.7)    1.0519 (X_U3.8)    1.0519 (X_U3.9)    0.0000 (X_U4.6)    -.0511     

(X_U4.7)    8.1014 (X_U4.8)    8.1014 (X_U4.9)    0.0000 (X_U5.6) -146.8800     

(X_U5.7)   12.1650 (X_U5.8)   12.1650 (X_U5.9)    0.0000 (X_U6.6)    -.0675     

(X_U6.7)   10.7340 (X_U6.8)   10.7340 (X_U6.9)    0.0000 (N198520)    3.1337    

(N204421)    3.5524                   (X_U2.10)    6.8284                       

(X_U2.11)   14.9420                   (X_U2.12)   14.9420                       

(X_U2.13)    6.8592                   (X_U2.14)    6.8593                       

(X_U2.53)   13.0000                   (X_U2.54)  -13.0000                       

(X_U2.90)     .9654                   (X_U2.91)   22.0000                       

(X_U2.92)  -22.0000                   (X_U2.99)    0.0000                       

(X_U3.10)    4.8984                   (X_U3.11)   14.9430                       

(X_U3.12)   14.9430                   (X_U3.13)    4.9290                       

(X_U3.14)    4.9290                   (X_U3.53)   13.0000                       

(X_U3.54)  -13.0000                   (X_U3.90)    -.9651                       

(X_U3.91)   22.0000                   (X_U3.92)  -22.0000                       

(X_U3.99)    0.0000                   (X_U4.10)    7.2984                       

(X_U4.11)   14.9420                   (X_U4.12)   14.9420                       

(X_U4.13)    7.3293                   (X_U4.14)    7.3294                       

(X_U4.53)   13.0000                   (X_U4.54)  -13.0000                       

(X_U4.90)    1.2004                   (X_U4.91)   22.0000                       

(X_U4.92)  -22.0000                   (X_U4.99)    0.0000                       

(X_U5.10)    9.9991                   (X_U5.11)   15.0000                       

(X_U5.12)   14.8830                   (X_U5.13)    9.9991                       

(X_U5.14)   10.0620                   (X_U5.53)   13.0000                       

(X_U5.54)  -13.0000                   (X_U5.90)   22.7330                       

(X_U5.91)   22.0000                   (X_U5.92)  -22.0000                       

(X_U5.99)    0.0000                   (X_U6.10)    9.9934                       

(X_U6.11)   14.9420                   (X_U6.12)   14.9410                       

(X_U6.13)   10.0250                   (X_U6.14)   10.0250                       

(X_U6.53)   13.0000                   (X_U6.54)  -13.0000                       

(X_U6.90)    -.0549                   (X_U6.91)   22.0000                       

(X_U6.92)  -22.0000                   (X_U6.99)    0.0000                   




    VOLTAGE SOURCE CURRENTS
    NAME         CURRENT

    V_V1        -1.109E+00
    V_V2         2.250E-02
    V_V3        -1.864E-02
    X_U2.vb     -4.804E-07
    X_U2.vc      5.430E-12
    X_U2.ve      2.235E-11
    X_U2.vlim    9.654E-04
    X_U2.vlp    -2.104E-11
    X_U2.vln    -2.297E-11
    X_U3.vb     -6.459E-08
    X_U3.vc      1.190E-11
    X_U3.ve      1.588E-11
    X_U3.vlim   -9.651E-04
    X_U3.vlp    -2.297E-11
    X_U3.vln    -2.104E-11
    X_U4.vb     -5.110E-07
    X_U4.vc      4.959E-12
    X_U4.ve      2.282E-11
    X_U4.vlim    1.200E-03
    X_U4.vlp    -2.080E-11
    X_U4.vln    -2.320E-11
    X_U5.vb     -1.469E-03
    X_U5.vc      1.973E-12
    X_U5.ve      2.581E-11
    X_U5.vlim    2.273E-02
    X_U5.vlp     1.557E-03
    X_U5.vln    -4.474E-11
    X_U6.vb     -6.745E-07
    X_U6.vc      2.264E-12
    X_U6.ve      2.552E-11
    X_U6.vlim   -5.486E-05
    X_U6.vlp    -2.206E-11
    X_U6.vln    -2.195E-11

    TOTAL POWER DISSIPATION   1.72E+01  WATTS

 NODE   VOLTAGE     NODE   VOLTAGE     NODE   VOLTAGE     NODE   VOLTAGE


( +VCC)   15.0000  ( -VCC)  -15.0000  ( OUT2)   11.0280  ( VREF)    7.5713      

(VREF2)   10.7370  (N14397)   14.5000 (N14486)    8.0415 (N15621)    8.0414     

(N15935)    7.5714 (N16344)    5.6408 (N16580)    5.6408 (N16671)    1.1092     

(N18090)   10.7370 (N18284)   10.7920 (N18859)   15.0000 (N18863)   11.7420     

(N20012)     .8605 (N20016)     .0109 (N20331)    5.9987 (X_U2.6)    -.0480     

(X_U2.7)    7.6195 (X_U2.8)    7.6195 (X_U2.9)    0.0000 (X_U3.6)    -.0065     

(X_U3.7)    1.0610 (X_U3.8)    1.0610 (X_U3.9)    0.0000 (X_U4.6)    -.0511     

(X_U4.7)    8.1014 (X_U4.8)    8.1014 (X_U4.9)    0.0000 (X_U5.6) -146.8800     

(X_U5.7)   12.1650 (X_U5.8)   12.1650 (X_U5.9)    0.0000 (X_U6.6)    -.0675     

(X_U6.7)   10.7340 (X_U6.8)   10.7340 (X_U6.9)    0.0000 (N198520)    3.1337    

(N204421)    3.5524                   (X_U2.10)    6.8284                       

(X_U2.11)   14.9420                   (X_U2.12)   14.9420                       

(X_U2.13)    6.8592                   (X_U2.14)    6.8593                       

(X_U2.53)   13.0000                   (X_U2.54)  -13.0000                       

(X_U2.90)     .9644                   (X_U2.91)   22.0000                       

(X_U2.92)  -22.0000                   (X_U2.99)    0.0000                       

(X_U3.10)    4.8984                   (X_U3.11)   14.9430                       

(X_U3.12)   14.9430                   (X_U3.13)    4.9290                       

(X_U3.14)    4.9290                   (X_U3.53)   13.0000                       

(X_U3.54)  -13.0000                   (X_U3.90)    -.9642                       

(X_U3.91)   22.0000                   (X_U3.92)  -22.0000                       

(X_U3.99)    0.0000                   (X_U4.10)    7.2984                       

(X_U4.11)   14.9420                   (X_U4.12)   14.9420                       

(X_U4.13)    7.3293                   (X_U4.14)    7.3294                       

(X_U4.53)   13.0000                   (X_U4.54)  -13.0000                       

(X_U4.90)    1.2004                   (X_U4.91)   22.0000                       

(X_U4.92)  -22.0000                   (X_U4.99)    0.0000                       

(X_U5.10)    9.9991                   (X_U5.11)   15.0000                       

(X_U5.12)   14.8830                   (X_U5.13)    9.9991                       

(X_U5.14)   10.0620                   (X_U5.53)   13.0000                       

(X_U5.54)  -13.0000                   (X_U5.90)   22.7330                       

(X_U5.91)   22.0000                   (X_U5.92)  -22.0000                       

(X_U5.99)    0.0000                   (X_U6.10)    9.9934                       

(X_U6.11)   14.9420                   (X_U6.12)   14.9410                       

(X_U6.13)   10.0250                   (X_U6.14)   10.0250                       

(X_U6.53)   13.0000                   (X_U6.54)  -13.0000                       

(X_U6.90)    -.0549                   (X_U6.91)   22.0000                       

(X_U6.92)  -22.0000                   (X_U6.99)    0.0000                   




    VOLTAGE SOURCE CURRENTS
    NAME         CURRENT

    V_V1        -1.109E+00
    V_V2         2.250E-02
    V_V3        -1.864E-02
    X_U2.vb     -4.804E-07
    X_U2.vc      5.430E-12
    X_U2.ve      2.235E-11
    X_U2.vlim    9.644E-04
    X_U2.vlp    -2.104E-11
    X_U2.vln    -2.297E-11
    X_U3.vb     -6.516E-08
    X_U3.vc      1.189E-11
    X_U3.ve      1.589E-11
    X_U3.vlim   -9.642E-04
    X_U3.vlp    -2.297E-11
    X_U3.vln    -2.104E-11
    X_U4.vb     -5.110E-07
    X_U4.vc      4.959E-12
    X_U4.ve      2.282E-11
    X_U4.vlim    1.200E-03
    X_U4.vlp    -2.080E-11
    X_U4.vln    -2.320E-11
    X_U5.vb     -1.469E-03
    X_U5.vc      1.973E-12
    X_U5.ve      2.581E-11
    X_U5.vlim    2.273E-02
    X_U5.vlp     1.557E-03
    X_U5.vln    -4.474E-11
    X_U6.vb     -6.745E-07
    X_U6.vc      2.264E-12
    X_U6.ve      2.552E-11
    X_U6.vlim   -5.486E-05
    X_U6.vlp    -2.206E-11
    X_U6.vln    -2.195E-11

    TOTAL POWER DISSIPATION   1.72E+01  WATTS

 NODE   VOLTAGE     NODE   VOLTAGE     NODE   VOLTAGE     NODE   VOLTAGE


( +VCC)   15.0000  ( -VCC)  -15.0000  ( OUT2)   11.0280  ( VREF)    7.5713      

(VREF2)   10.7400  (N14397)   14.5000 (N14486)    8.0415 (N15621)    8.0414     

(N15935)    7.5714 (N16344)    5.6408 (N16580)    5.6408 (N16671)    1.1047     

(N18090)   10.7400 (N18284)   10.7950 (N18859)   15.0000 (N18863)   11.7420     

(N20012)     .8605 (N20016)     .0109 (N20331)    5.9988 (X_U2.6)    -.0480     

(X_U2.7)    7.6195 (X_U2.8)    7.6195 (X_U2.9)    0.0000 (X_U3.6)    -.0065     

(X_U3.7)    1.0564 (X_U3.8)    1.0564 (X_U3.9)    0.0000 (X_U4.6)    -.0511     

(X_U4.7)    8.1014 (X_U4.8)    8.1014 (X_U4.9)    0.0000 (X_U5.6) -146.8800     

(X_U5.7)   12.1650 (X_U5.8)   12.1650 (X_U5.9)    0.0000 (X_U6.6)    -.0675     

(X_U6.7)   10.7370 (X_U6.8)   10.7370 (X_U6.9)    0.0000 (N198520)    3.1337    

(N204421)    3.5524                   (X_U2.10)    6.8284                       

(X_U2.11)   14.9420                   (X_U2.12)   14.9420                       

(X_U2.13)    6.8592                   (X_U2.14)    6.8593                       

(X_U2.53)   13.0000                   (X_U2.54)  -13.0000                       

(X_U2.90)     .9654                   (X_U2.91)   22.0000                       

(X_U2.92)  -22.0000                   (X_U2.99)    0.0000                       

(X_U3.10)    4.8984                   (X_U3.11)   14.9430                       

(X_U3.12)   14.9430                   (X_U3.13)    4.9290                       

(X_U3.14)    4.9290                   (X_U3.53)   13.0000                       

(X_U3.54)  -13.0000                   (X_U3.90)    -.9651                       

(X_U3.91)   22.0000                   (X_U3.92)  -22.0000                       

(X_U3.99)    0.0000                   (X_U4.10)    7.2984                       

(X_U4.11)   14.9420                   (X_U4.12)   14.9420                       

(X_U4.13)    7.3293                   (X_U4.14)    7.3294                       

(X_U4.53)   13.0000                   (X_U4.54)  -13.0000                       

(X_U4.90)    1.2004                   (X_U4.91)   22.0000                       

(X_U4.92)  -22.0000                   (X_U4.99)    0.0000                       

(X_U5.10)   10.0020                   (X_U5.11)   15.0000                       

(X_U5.12)   14.8830                   (X_U5.13)   10.0020                       

(X_U5.14)   10.0640                   (X_U5.53)   13.0000                       

(X_U5.54)  -13.0000                   (X_U5.90)   22.7330                       

(X_U5.91)   22.0000                   (X_U5.92)  -22.0000                       

(X_U5.99)    0.0000                   (X_U6.10)    9.9965                       

(X_U6.11)   14.9420                   (X_U6.12)   14.9410                       

(X_U6.13)   10.0280                   (X_U6.14)   10.0280                       

(X_U6.53)   13.0000                   (X_U6.54)  -13.0000                       

(X_U6.90)    -.0543                   (X_U6.91)   22.0000                       

(X_U6.92)  -22.0000                   (X_U6.99)    0.0000                   




    VOLTAGE SOURCE CURRENTS
    NAME         CURRENT

    V_V1        -1.108E+00
    V_V2         2.250E-02
    V_V3        -1.864E-02
    X_U2.vb     -4.804E-07
    X_U2.vc      5.430E-12
    X_U2.ve      2.235E-11
    X_U2.vlim    9.654E-04
    X_U2.vlp    -2.104E-11
    X_U2.vln    -2.297E-11
    X_U3.vb     -6.487E-08
    X_U3.vc      1.190E-11
    X_U3.ve      1.588E-11
    X_U3.vlim   -9.651E-04
    X_U3.vlp    -2.297E-11
    X_U3.vln    -2.104E-11
    X_U4.vb     -5.110E-07
    X_U4.vc      4.959E-12
    X_U4.ve      2.282E-11
    X_U4.vlim    1.200E-03
    X_U4.vlp    -2.080E-11
    X_U4.vln    -2.320E-11
    X_U5.vb     -1.469E-03
    X_U5.vc      1.973E-12
    X_U5.ve      2.581E-11
    X_U5.vlim    2.273E-02
    X_U5.vlp     1.557E-03
    X_U5.vln    -4.474E-11
    X_U6.vb     -6.747E-07
    X_U6.vc      2.261E-12
    X_U6.ve      2.552E-11
    X_U6.vlim   -5.432E-05
    X_U6.vlp    -2.206E-11
    X_U6.vln    -2.195E-11

    TOTAL POWER DISSIPATION   1.72E+01  WATTS

 NODE   VOLTAGE     NODE   VOLTAGE     NODE   VOLTAGE     NODE   VOLTAGE


( +VCC)   15.0000  ( -VCC)  -15.0000  ( OUT2)   11.0280  ( VREF)    7.5713      

(VREF2)   10.7340  (N14397)   14.5000 (N14486)    8.0415 (N15621)    8.0414     

(N15935)    7.5714 (N16344)    5.6408 (N16580)    5.6408 (N16671)    1.1047     

(N18090)   10.7340 (N18284)   10.7900 (N18859)   15.0000 (N18863)   11.7420     

(N20012)     .8605 (N20016)     .0109 (N20331)    5.9986 (X_U2.6)    -.0480     

(X_U2.7)    7.6195 (X_U2.8)    7.6195 (X_U2.9)    0.0000 (X_U3.6)    -.0065     

(X_U3.7)    1.0564 (X_U3.8)    1.0564 (X_U3.9)    0.0000 (X_U4.6)    -.0511     

(X_U4.7)    8.1014 (X_U4.8)    8.1014 (X_U4.9)    0.0000 (X_U5.6) -146.8800     

(X_U5.7)   12.1640 (X_U5.8)   12.1640 (X_U5.9)    0.0000 (X_U6.6)    -.0674     

(X_U6.7)   10.7310 (X_U6.8)   10.7310 (X_U6.9)    0.0000 (N198520)    3.1337    

(N204421)    3.5524                   (X_U2.10)    6.8284                       

(X_U2.11)   14.9420                   (X_U2.12)   14.9420                       

(X_U2.13)    6.8592                   (X_U2.14)    6.8593                       

(X_U2.53)   13.0000                   (X_U2.54)  -13.0000                       

(X_U2.90)     .9654                   (X_U2.91)   22.0000                       

(X_U2.92)  -22.0000                   (X_U2.99)    0.0000                       

(X_U3.10)    4.8984                   (X_U3.11)   14.9430                       

(X_U3.12)   14.9430                   (X_U3.13)    4.9290                       

(X_U3.14)    4.9290                   (X_U3.53)   13.0000                       

(X_U3.54)  -13.0000                   (X_U3.90)    -.9651                       

(X_U3.91)   22.0000                   (X_U3.92)  -22.0000                       

(X_U3.99)    0.0000                   (X_U4.10)    7.2984                       

(X_U4.11)   14.9420                   (X_U4.12)   14.9420                       

(X_U4.13)    7.3293                   (X_U4.14)    7.3294                       

(X_U4.53)   13.0000                   (X_U4.54)  -13.0000                       

(X_U4.90)    1.2004                   (X_U4.91)   22.0000                       

(X_U4.92)  -22.0000                   (X_U4.99)    0.0000                       

(X_U5.10)    9.9966                   (X_U5.11)   15.0000                       

(X_U5.12)   14.8830                   (X_U5.13)    9.9966                       

(X_U5.14)   10.0590                   (X_U5.53)   13.0000                       

(X_U5.54)  -13.0000                   (X_U5.90)   22.7330                       

(X_U5.91)   22.0000                   (X_U5.92)  -22.0000                       

(X_U5.99)    0.0000                   (X_U6.10)    9.9904                       

(X_U6.11)   14.9420                   (X_U6.12)   14.9410                       

(X_U6.13)   10.0220                   (X_U6.14)   10.0220                       

(X_U6.53)   13.0000                   (X_U6.54)  -13.0000                       

(X_U6.90)    -.0554                   (X_U6.91)   22.0000                       

(X_U6.92)  -22.0000                   (X_U6.99)    0.0000                   




    VOLTAGE SOURCE CURRENTS
    NAME         CURRENT

    V_V1        -1.109E+00
    V_V2         2.250E-02
    V_V3        -1.864E-02
    X_U2.vb     -4.804E-07
    X_U2.vc      5.430E-12
    X_U2.ve      2.235E-11
    X_U2.vlim    9.654E-04
    X_U2.vlp    -2.104E-11
    X_U2.vln    -2.297E-11
    X_U3.vb     -6.487E-08
    X_U3.vc      1.190E-11
    X_U3.ve      1.588E-11
    X_U3.vlim   -9.651E-04
    X_U3.vlp    -2.297E-11
    X_U3.vln    -2.104E-11
    X_U4.vb     -5.110E-07
    X_U4.vc      4.959E-12
    X_U4.ve      2.282E-11
    X_U4.vlim    1.200E-03
    X_U4.vlp    -2.080E-11
    X_U4.vln    -2.320E-11
    X_U5.vb     -1.469E-03
    X_U5.vc      1.973E-12
    X_U5.ve      2.581E-11
    X_U5.vlim    2.273E-02
    X_U5.vlp     1.557E-03
    X_U5.vln    -4.474E-11
    X_U6.vb     -6.743E-07
    X_U6.vc      2.267E-12
    X_U6.ve      2.551E-11
    X_U6.vlim   -5.540E-05
    X_U6.vlp    -2.206E-11
    X_U6.vln    -2.195E-11

    TOTAL POWER DISSIPATION   1.72E+01  WATTS

 NODE   VOLTAGE     NODE   VOLTAGE     NODE   VOLTAGE     NODE   VOLTAGE


( +VCC)   15.0000  ( -VCC)  -15.0000  ( OUT2)   11.0280  ( VREF)    7.5713      

(VREF2)   10.7370  (N14397)   14.5000 (N14486)    8.0415 (N15621)    8.0414     

(N15935)    7.5714 (N16344)    5.6408 (N16580)    5.6408 (N16671)    1.1047     

(N18090)   10.7370 (N18284)   10.7920 (N18859)   15.0000 (N18863)   11.7420     

(N20012)     .8605 (N20016)     .0109 (N20331)    5.9987 (X_U2.6)    -.0480     

(X_U2.7)    7.6195 (X_U2.8)    7.6195 (X_U2.9)    0.0000 (X_U3.6)    -.0065     

(X_U3.7)    1.0564 (X_U3.8)    1.0564 (X_U3.9)    0.0000 (X_U4.6)    -.0511     

(X_U4.7)    8.1014 (X_U4.8)    8.1014 (X_U4.9)    0.0000 (X_U5.6) -146.8800     

(X_U5.7)   12.1650 (X_U5.8)   12.1650 (X_U5.9)    0.0000 (X_U6.6)    -.0675     

(X_U6.7)   10.7340 (X_U6.8)   10.7340 (X_U6.9)    0.0000 (N198520)    3.1337    

(N204421)    3.5524                   (X_U2.10)    6.8284                       

(X_U2.11)   14.9420                   (X_U2.12)   14.9420                       

(X_U2.13)    6.8592                   (X_U2.14)    6.8593                       

(X_U2.53)   13.0000                   (X_U2.54)  -13.0000                       

(X_U2.90)     .9654                   (X_U2.91)   22.0000                       

(X_U2.92)  -22.0000                   (X_U2.99)    0.0000                       

(X_U3.10)    4.8984                   (X_U3.11)   14.9430                       

(X_U3.12)   14.9430                   (X_U3.13)    4.9290                       

(X_U3.14)    4.9290                   (X_U3.53)   13.0000                       

(X_U3.54)  -13.0000                   (X_U3.90)    -.9651                       

(X_U3.91)   22.0000                   (X_U3.92)  -22.0000                       

(X_U3.99)    0.0000                   (X_U4.10)    7.2984                       

(X_U4.11)   14.9420                   (X_U4.12)   14.9420                       

(X_U4.13)    7.3293                   (X_U4.14)    7.3294                       

(X_U4.53)   13.0000                   (X_U4.54)  -13.0000                       

(X_U4.90)    1.2004                   (X_U4.91)   22.0000                       

(X_U4.92)  -22.0000                   (X_U4.99)    0.0000                       

(X_U5.10)    9.9992                   (X_U5.11)   15.0000                       

(X_U5.12)   14.8830                   (X_U5.13)    9.9992                       

(X_U5.14)   10.0620                   (X_U5.53)   13.0000                       

(X_U5.54)  -13.0000                   (X_U5.90)   22.7330                       

(X_U5.91)   22.0000                   (X_U5.92)  -22.0000                       

(X_U5.99)    0.0000                   (X_U6.10)    9.9934                       

(X_U6.11)   14.9420                   (X_U6.12)   14.9410                       

(X_U6.13)   10.0250                   (X_U6.14)   10.0250                       

(X_U6.53)   13.0000                   (X_U6.54)  -13.0000                       

(X_U6.90)    -.0549                   (X_U6.91)   22.0000                       

(X_U6.92)  -22.0000                   (X_U6.99)    0.0000                   




    VOLTAGE SOURCE CURRENTS
    NAME         CURRENT

    V_V1        -1.109E+00
    V_V2         2.250E-02
    V_V3        -1.864E-02
    X_U2.vb     -4.804E-07
    X_U2.vc      5.430E-12
    X_U2.ve      2.235E-11
    X_U2.vlim    9.654E-04
    X_U2.vlp    -2.104E-11
    X_U2.vln    -2.297E-11
    X_U3.vb     -6.487E-08
    X_U3.vc      1.190E-11
    X_U3.ve      1.588E-11
    X_U3.vlim   -9.651E-04
    X_U3.vlp    -2.297E-11
    X_U3.vln    -2.104E-11
    X_U4.vb     -5.110E-07
    X_U4.vc      4.959E-12
    X_U4.ve      2.282E-11
    X_U4.vlim    1.200E-03
    X_U4.vlp    -2.080E-11
    X_U4.vln    -2.320E-11
    X_U5.vb     -1.469E-03
    X_U5.vc      1.973E-12
    X_U5.ve      2.581E-11
    X_U5.vlim    2.273E-02
    X_U5.vlp     1.557E-03
    X_U5.vln    -4.474E-11
    X_U6.vb     -6.745E-07
    X_U6.vc      2.264E-12
    X_U6.ve      2.552E-11
    X_U6.vlim   -5.485E-05
    X_U6.vlp    -2.206E-11
    X_U6.vln    -2.195E-11

    TOTAL POWER DISSIPATION   1.72E+01  WATTS

 NODE   VOLTAGE     NODE   VOLTAGE     NODE   VOLTAGE     NODE   VOLTAGE


( +VCC)   15.0000  ( -VCC)  -15.0000  ( OUT2)   11.0280  ( VREF)    7.5713      

(VREF2)   10.7370  (N14397)   14.5000 (N14486)    8.0415 (N15621)    8.0414     

(N15935)    7.5714 (N16344)    5.6408 (N16580)    5.6408 (N16671)    1.1047     

(N18090)   10.7370 (N18284)   10.7920 (N18859)   15.0000 (N18863)   11.7420     

(N20012)     .8605 (N20016)     .0109 (N20331)    5.9987 (X_U2.6)    -.0480     

(X_U2.7)    7.6195 (X_U2.8)    7.6195 (X_U2.9)    0.0000 (X_U3.6)    -.0065     

(X_U3.7)    1.0564 (X_U3.8)    1.0564 (X_U3.9)    0.0000 (X_U4.6)    -.0511     

(X_U4.7)    8.1014 (X_U4.8)    8.1014 (X_U4.9)    0.0000 (X_U5.6) -146.8800     

(X_U5.7)   12.1650 (X_U5.8)   12.1650 (X_U5.9)    0.0000 (X_U6.6)    -.0675     

(X_U6.7)   10.7340 (X_U6.8)   10.7340 (X_U6.9)    0.0000 (N198520)    3.1337    

(N204421)    3.5524                   (X_U2.10)    6.8284                       

(X_U2.11)   14.9420                   (X_U2.12)   14.9420                       

(X_U2.13)    6.8592                   (X_U2.14)    6.8593                       

(X_U2.53)   13.0000                   (X_U2.54)  -13.0000                       

(X_U2.90)     .9654                   (X_U2.91)   22.0000                       

(X_U2.92)  -22.0000                   (X_U2.99)    0.0000                       

(X_U3.10)    4.8984                   (X_U3.11)   14.9430                       

(X_U3.12)   14.9430                   (X_U3.13)    4.9290                       

(X_U3.14)    4.9290                   (X_U3.53)   13.0000                       

(X_U3.54)  -13.0000                   (X_U3.90)    -.9651                       

(X_U3.91)   22.0000                   (X_U3.92)  -22.0000                       

(X_U3.99)    0.0000                   (X_U4.10)    7.2984                       

(X_U4.11)   14.9420                   (X_U4.12)   14.9420                       

(X_U4.13)    7.3293                   (X_U4.14)    7.3294                       

(X_U4.53)   13.0000                   (X_U4.54)  -13.0000                       

(X_U4.90)    1.2004                   (X_U4.91)   22.0000                       

(X_U4.92)  -22.0000                   (X_U4.99)    0.0000                       

(X_U5.10)    9.9991                   (X_U5.11)   15.0000                       

(X_U5.12)   14.8830                   (X_U5.13)    9.9991                       

(X_U5.14)   10.0620                   (X_U5.53)   13.0000                       

(X_U5.54)  -13.0000                   (X_U5.90)   22.7330                       

(X_U5.91)   22.0000                   (X_U5.92)  -22.0000                       

(X_U5.99)    0.0000                   (X_U6.10)    9.9934                       

(X_U6.11)   14.9420                   (X_U6.12)   14.9410                       

(X_U6.13)   10.0250                   (X_U6.14)   10.0250                       

(X_U6.53)   13.0000                   (X_U6.54)  -13.0000                       

(X_U6.90)    -.0548                   (X_U6.91)   22.0000                       

(X_U6.92)  -22.0000                   (X_U6.99)    0.0000                   




    VOLTAGE SOURCE CURRENTS
    NAME         CURRENT

    V_V1        -1.109E+00
    V_V2         2.250E-02
    V_V3        -1.864E-02
    X_U2.vb     -4.804E-07
    X_U2.vc      5.430E-12
    X_U2.ve      2.235E-11
    X_U2.vlim    9.654E-04
    X_U2.vlp    -2.104E-11
    X_U2.vln    -2.297E-11
    X_U3.vb     -6.487E-08
    X_U3.vc      1.190E-11
    X_U3.ve      1.588E-11
    X_U3.vlim   -9.651E-04
    X_U3.vlp    -2.297E-11
    X_U3.vln    -2.104E-11
    X_U4.vb     -5.110E-07
    X_U4.vc      4.959E-12
    X_U4.ve      2.282E-11
    X_U4.vlim    1.200E-03
    X_U4.vlp    -2.080E-11
    X_U4.vln    -2.320E-11
    X_U5.vb     -1.469E-03
    X_U5.vc      1.973E-12
    X_U5.ve      2.581E-11
    X_U5.vlim    2.273E-02
    X_U5.vlp     1.557E-03
    X_U5.vln    -4.474E-11
    X_U6.vb     -6.745E-07
    X_U6.vc      2.264E-12
    X_U6.ve      2.552E-11
    X_U6.vlim   -5.482E-05
    X_U6.vlp    -2.206E-11
    X_U6.vln    -2.195E-11

    TOTAL POWER DISSIPATION   1.72E+01  WATTS

 NODE   VOLTAGE     NODE   VOLTAGE     NODE   VOLTAGE     NODE   VOLTAGE


( +VCC)   15.0000  ( -VCC)  -15.0000  ( OUT2)   11.0310  ( VREF)    7.5713      

(VREF2)   10.7370  (N14397)   14.5000 (N14486)    8.0415 (N15621)    8.0414     

(N15935)    7.5714 (N16344)    5.6408 (N16580)    5.6408 (N16671)    1.1047     

(N18090)   10.7370 (N18284)   10.7930 (N18859)   15.0000 (N18863)   11.7420     

(N20012)     .8606 (N20016)     .0109 (N20331)    5.9979 (X_U2.6)    -.0480     

(X_U2.7)    7.6195 (X_U2.8)    7.6195 (X_U2.9)    0.0000 (X_U3.6)    -.0065     

(X_U3.7)    1.0564 (X_U3.8)    1.0564 (X_U3.9)    0.0000 (X_U4.6)    -.0511     

(X_U4.7)    8.1014 (X_U4.8)    8.1014 (X_U4.9)    0.0000 (X_U5.6) -146.8800     

(X_U5.7)   12.1680 (X_U5.8)   12.1680 (X_U5.9)    0.0000 (X_U6.6)    -.0675     

(X_U6.7)   10.7340 (X_U6.8)   10.7340 (X_U6.9)    0.0000 (N198520)    3.1337    

(N204421)    3.5524                   (X_U2.10)    6.8284                       

(X_U2.11)   14.9420                   (X_U2.12)   14.9420                       

(X_U2.13)    6.8592                   (X_U2.14)    6.8593                       

(X_U2.53)   13.0000                   (X_U2.54)  -13.0000                       

(X_U2.90)     .9654                   (X_U2.91)   22.0000                       

(X_U2.92)  -22.0000                   (X_U2.99)    0.0000                       

(X_U3.10)    4.8984                   (X_U3.11)   14.9430                       

(X_U3.12)   14.9430                   (X_U3.13)    4.9290                       

(X_U3.14)    4.9290                   (X_U3.53)   13.0000                       

(X_U3.54)  -13.0000                   (X_U3.90)    -.9651                       

(X_U3.91)   22.0000                   (X_U3.92)  -22.0000                       

(X_U3.99)    0.0000                   (X_U4.10)    7.2984                       

(X_U4.11)   14.9420                   (X_U4.12)   14.9420                       

(X_U4.13)    7.3293                   (X_U4.14)    7.3294                       

(X_U4.53)   13.0000                   (X_U4.54)  -13.0000                       

(X_U4.90)    1.2004                   (X_U4.91)   22.0000                       

(X_U4.92)  -22.0000                   (X_U4.99)    0.0000                       

(X_U5.10)    9.9996                   (X_U5.11)   15.0000                       

(X_U5.12)   14.8830                   (X_U5.13)    9.9996                       

(X_U5.14)   10.0620                   (X_U5.53)   13.0000                       

(X_U5.54)  -13.0000                   (X_U5.90)   22.7330                       

(X_U5.91)   22.0000                   (X_U5.92)  -22.0000                       

(X_U5.99)    0.0000                   (X_U6.10)    9.9934                       

(X_U6.11)   14.9420                   (X_U6.12)   14.9410                       

(X_U6.13)   10.0250                   (X_U6.14)   10.0250                       

(X_U6.53)   13.0000                   (X_U6.54)  -13.0000                       

(X_U6.90)    -.0554                   (X_U6.91)   22.0000                       

(X_U6.92)  -22.0000                   (X_U6.99)    0.0000                   




    VOLTAGE SOURCE CURRENTS
    NAME         CURRENT

    V_V1        -1.109E+00
    V_V2         2.250E-02
    V_V3        -1.864E-02
    X_U2.vb     -4.804E-07
    X_U2.vc      5.430E-12
    X_U2.ve      2.235E-11
    X_U2.vlim    9.654E-04
    X_U2.vlp    -2.104E-11
    X_U2.vln    -2.297E-11
    X_U3.vb     -6.487E-08
    X_U3.vc      1.190E-11
    X_U3.ve      1.588E-11
    X_U3.vlim   -9.651E-04
    X_U3.vlp    -2.297E-11
    X_U3.vln    -2.104E-11
    X_U4.vb     -5.110E-07
    X_U4.vc      4.959E-12
    X_U4.ve      2.282E-11
    X_U4.vlim    1.200E-03
    X_U4.vlp    -2.080E-11
    X_U4.vln    -2.320E-11
    X_U5.vb     -1.469E-03
    X_U5.vc      1.970E-12
    X_U5.ve      2.581E-11
    X_U5.vlim    2.273E-02
    X_U5.vlp     1.557E-03
    X_U5.vln    -4.474E-11
    X_U6.vb     -6.745E-07
    X_U6.vc      2.264E-12
    X_U6.ve      2.552E-11
    X_U6.vlim   -5.540E-05
    X_U6.vlp    -2.206E-11
    X_U6.vln    -2.195E-11

    TOTAL POWER DISSIPATION   1.72E+01  WATTS

 NODE   VOLTAGE     NODE   VOLTAGE     NODE   VOLTAGE     NODE   VOLTAGE


( +VCC)   15.0000  ( -VCC)  -15.0000  ( OUT2)   11.0320  ( VREF)    7.5713      

(VREF2)   10.7370  (N14397)   14.5000 (N14486)    8.0415 (N15621)    8.0414     

(N15935)    7.5714 (N16344)    5.6408 (N16580)    5.6408 (N16671)    1.1047     

(N18090)   10.7370 (N18284)   10.7930 (N18859)   15.0000 (N18863)   11.7420     

(N20012)     .8605 (N20016)     .0109 (N20331)    6.0001 (X_U2.6)    -.0480     

(X_U2.7)    7.6195 (X_U2.8)    7.6195 (X_U2.9)    0.0000 (X_U3.6)    -.0065     

(X_U3.7)    1.0564 (X_U3.8)    1.0564 (X_U3.9)    0.0000 (X_U4.6)    -.0511     

(X_U4.7)    8.1014 (X_U4.8)    8.1014 (X_U4.9)    0.0000 (X_U5.6) -146.8800     

(X_U5.7)   12.1680 (X_U5.8)   12.1680 (X_U5.9)    0.0000 (X_U6.6)    -.0675     

(X_U6.7)   10.7340 (X_U6.8)   10.7340 (X_U6.9)    0.0000 (N198520)    3.1339    

(N204421)    3.5524                   (X_U2.10)    6.8284                       

(X_U2.11)   14.9420                   (X_U2.12)   14.9420                       

(X_U2.13)    6.8592                   (X_U2.14)    6.8593                       

(X_U2.53)   13.0000                   (X_U2.54)  -13.0000                       

(X_U2.90)     .9654                   (X_U2.91)   22.0000                       

(X_U2.92)  -22.0000                   (X_U2.99)    0.0000                       

(X_U3.10)    4.8984                   (X_U3.11)   14.9430                       

(X_U3.12)   14.9430                   (X_U3.13)    4.9290                       

(X_U3.14)    4.9290                   (X_U3.53)   13.0000                       

(X_U3.54)  -13.0000                   (X_U3.90)    -.9651                       

(X_U3.91)   22.0000                   (X_U3.92)  -22.0000                       

(X_U3.99)    0.0000                   (X_U4.10)    7.2984                       

(X_U4.11)   14.9420                   (X_U4.12)   14.9420                       

(X_U4.13)    7.3293                   (X_U4.14)    7.3294                       

(X_U4.53)   13.0000                   (X_U4.54)  -13.0000                       

(X_U4.90)    1.2004                   (X_U4.91)   22.0000                       

(X_U4.92)  -22.0000                   (X_U4.99)    0.0000                       

(X_U5.10)    9.9998                   (X_U5.11)   15.0000                       

(X_U5.12)   14.8830                   (X_U5.13)    9.9998                       

(X_U5.14)   10.0620                   (X_U5.53)   13.0000                       

(X_U5.54)  -13.0000                   (X_U5.90)   22.7330                       

(X_U5.91)   22.0000                   (X_U5.92)  -22.0000                       

(X_U5.99)    0.0000                   (X_U6.10)    9.9934                       

(X_U6.11)   14.9420                   (X_U6.12)   14.9410                       

(X_U6.13)   10.0250                   (X_U6.14)   10.0250                       

(X_U6.53)   13.0000                   (X_U6.54)  -13.0000                       

(X_U6.90)    -.0556                   (X_U6.91)   22.0000                       

(X_U6.92)  -22.0000                   (X_U6.99)    0.0000                   




    VOLTAGE SOURCE CURRENTS
    NAME         CURRENT

    V_V1        -1.109E+00
    V_V2         2.250E-02
    V_V3        -1.864E-02
    X_U2.vb     -4.804E-07
    X_U2.vc      5.430E-12
    X_U2.ve      2.235E-11
    X_U2.vlim    9.654E-04
    X_U2.vlp    -2.104E-11
    X_U2.vln    -2.297E-11
    X_U3.vb     -6.487E-08
    X_U3.vc      1.190E-11
    X_U3.ve      1.588E-11
    X_U3.vlim   -9.651E-04
    X_U3.vlp    -2.297E-11
    X_U3.vln    -2.104E-11
    X_U4.vb     -5.110E-07
    X_U4.vc      4.959E-12
    X_U4.ve      2.282E-11
    X_U4.vlim    1.200E-03
    X_U4.vlp    -2.080E-11
    X_U4.vln    -2.320E-11
    X_U5.vb     -1.469E-03
    X_U5.vc      1.969E-12
    X_U5.ve      2.581E-11
    X_U5.vlim    2.273E-02
    X_U5.vlp     1.557E-03
    X_U5.vln    -4.474E-11
    X_U6.vb     -6.745E-07
    X_U6.vc      2.264E-12
    X_U6.ve      2.552E-11
    X_U6.vlim   -5.557E-05
    X_U6.vlp    -2.206E-11
    X_U6.vln    -2.195E-11

    TOTAL POWER DISSIPATION   1.72E+01  WATTS

 NODE   VOLTAGE     NODE   VOLTAGE     NODE   VOLTAGE     NODE   VOLTAGE


( +VCC)   15.0000  ( -VCC)  -15.0000  ( OUT2)   11.0280  ( VREF)    7.5713      

(VREF2)   10.7370  (N14397)   14.5000 (N14486)    8.0415 (N15621)    8.0414     

(N15935)    7.5714 (N16344)    5.6408 (N16580)    5.6408 (N16671)    1.1047     

(N18090)   10.7370 (N18284)   10.7920 (N18859)   15.0000 (N18863)   11.7420     

(N20012)     .8605 (N20016)     .0108 (N20331)    5.9987 (X_U2.6)    -.0480     

(X_U2.7)    7.6195 (X_U2.8)    7.6195 (X_U2.9)    0.0000 (X_U3.6)    -.0065     

(X_U3.7)    1.0564 (X_U3.8)    1.0564 (X_U3.9)    0.0000 (X_U4.6)    -.0511     

(X_U4.7)    8.1014 (X_U4.8)    8.1014 (X_U4.9)    0.0000 (X_U5.6) -146.8800     

(X_U5.7)   12.1650 (X_U5.8)   12.1650 (X_U5.9)    0.0000 (X_U6.6)    -.0675     

(X_U6.7)   10.7340 (X_U6.8)   10.7340 (X_U6.9)    0.0000 (N198520)    3.1337    

(N204421)    3.5524                   (X_U2.10)    6.8284                       

(X_U2.11)   14.9420                   (X_U2.12)   14.9420                       

(X_U2.13)    6.8592                   (X_U2.14)    6.8593                       

(X_U2.53)   13.0000                   (X_U2.54)  -13.0000                       

(X_U2.90)     .9654                   (X_U2.91)   22.0000                       

(X_U2.92)  -22.0000                   (X_U2.99)    0.0000                       

(X_U3.10)    4.8984                   (X_U3.11)   14.9430                       

(X_U3.12)   14.9430                   (X_U3.13)    4.9290                       

(X_U3.14)    4.9290                   (X_U3.53)   13.0000                       

(X_U3.54)  -13.0000                   (X_U3.90)    -.9651                       

(X_U3.91)   22.0000                   (X_U3.92)  -22.0000                       

(X_U3.99)    0.0000                   (X_U4.10)    7.2984                       

(X_U4.11)   14.9420                   (X_U4.12)   14.9420                       

(X_U4.13)    7.3293                   (X_U4.14)    7.3294                       

(X_U4.53)   13.0000                   (X_U4.54)  -13.0000                       

(X_U4.90)    1.2004                   (X_U4.91)   22.0000                       

(X_U4.92)  -22.0000                   (X_U4.99)    0.0000                       

(X_U5.10)    9.9991                   (X_U5.11)   15.0000                       

(X_U5.12)   14.8830                   (X_U5.13)    9.9991                       

(X_U5.14)   10.0620                   (X_U5.53)   13.0000                       

(X_U5.54)  -13.0000                   (X_U5.90)   22.7330                       

(X_U5.91)   22.0000                   (X_U5.92)  -22.0000                       

(X_U5.99)    0.0000                   (X_U6.10)    9.9934                       

(X_U6.11)   14.9420                   (X_U6.12)   14.9410                       

(X_U6.13)   10.0250                   (X_U6.14)   10.0250                       

(X_U6.53)   13.0000                   (X_U6.54)  -13.0000                       

(X_U6.90)    -.0549                   (X_U6.91)   22.0000                       

(X_U6.92)  -22.0000                   (X_U6.99)    0.0000                   




    VOLTAGE SOURCE CURRENTS
    NAME         CURRENT

    V_V1        -1.109E+00
    V_V2         2.250E-02
    V_V3        -1.864E-02
    X_U2.vb     -4.804E-07
    X_U2.vc      5.430E-12
    X_U2.ve      2.235E-11
    X_U2.vlim    9.654E-04
    X_U2.vlp    -2.104E-11
    X_U2.vln    -2.297E-11
    X_U3.vb     -6.487E-08
    X_U3.vc      1.190E-11
    X_U3.ve      1.588E-11
    X_U3.vlim   -9.651E-04
    X_U3.vlp    -2.297E-11
    X_U3.vln    -2.104E-11
    X_U4.vb     -5.110E-07
    X_U4.vc      4.959E-12
    X_U4.ve      2.282E-11
    X_U4.vlim    1.200E-03
    X_U4.vlp    -2.080E-11
    X_U4.vln    -2.320E-11
    X_U5.vb     -1.469E-03
    X_U5.vc      1.973E-12
    X_U5.ve      2.581E-11
    X_U5.vlim    2.273E-02
    X_U5.vlp     1.557E-03
    X_U5.vln    -4.474E-11
    X_U6.vb     -6.745E-07
    X_U6.vc      2.264E-12
    X_U6.ve      2.552E-11
    X_U6.vlim   -5.486E-05
    X_U6.vlp    -2.206E-11
    X_U6.vln    -2.195E-11

    TOTAL POWER DISSIPATION   1.72E+01  WATTS

 NODE   VOLTAGE     NODE   VOLTAGE     NODE   VOLTAGE     NODE   VOLTAGE


( +VCC)   15.0000  ( -VCC)  -15.0000  ( OUT2)   11.0300  ( VREF)    7.5713      

(VREF2)   10.7370  (N14397)   14.5000 (N14486)    8.0415 (N15621)    8.0414     

(N15935)    7.5714 (N16344)    5.6408 (N16580)    5.6408 (N16671)    1.1047     

(N18090)   10.7370 (N18284)   10.7920 (N18859)   15.0000 (N18863)   11.7420     

(N20012)     .8606 (N20016)     .0109 (N20331)    6.0011 (X_U2.6)    -.0480     

(X_U2.7)    7.6195 (X_U2.8)    7.6195 (X_U2.9)    0.0000 (X_U3.6)    -.0065     

(X_U3.7)    1.0564 (X_U3.8)    1.0564 (X_U3.9)    0.0000 (X_U4.6)    -.0511     

(X_U4.7)    8.1014 (X_U4.8)    8.1014 (X_U4.9)    0.0000 (X_U5.6) -146.8800     

(X_U5.7)   12.1660 (X_U5.8)   12.1660 (X_U5.9)    0.0000 (X_U6.6)    -.0675     

(X_U6.7)   10.7340 (X_U6.8)   10.7340 (X_U6.9)    0.0000 (N198520)    3.1337    

(N204421)    3.5524                   (X_U2.10)    6.8284                       

(X_U2.11)   14.9420                   (X_U2.12)   14.9420                       

(X_U2.13)    6.8592                   (X_U2.14)    6.8593                       

(X_U2.53)   13.0000                   (X_U2.54)  -13.0000                       

(X_U2.90)     .9654                   (X_U2.91)   22.0000                       

(X_U2.92)  -22.0000                   (X_U2.99)    0.0000                       

(X_U3.10)    4.8984                   (X_U3.11)   14.9430                       

(X_U3.12)   14.9430                   (X_U3.13)    4.9290                       

(X_U3.14)    4.9290                   (X_U3.53)   13.0000                       

(X_U3.54)  -13.0000                   (X_U3.90)    -.9651                       

(X_U3.91)   22.0000                   (X_U3.92)  -22.0000                       

(X_U3.99)    0.0000                   (X_U4.10)    7.2984                       

(X_U4.11)   14.9420                   (X_U4.12)   14.9420                       

(X_U4.13)    7.3293                   (X_U4.14)    7.3294                       

(X_U4.53)   13.0000                   (X_U4.54)  -13.0000                       

(X_U4.90)    1.2004                   (X_U4.91)   22.0000                       

(X_U4.92)  -22.0000                   (X_U4.99)    0.0000                       

(X_U5.10)    9.9994                   (X_U5.11)   15.0000                       

(X_U5.12)   14.8830                   (X_U5.13)    9.9994                       

(X_U5.14)   10.0620                   (X_U5.53)   13.0000                       

(X_U5.54)  -13.0000                   (X_U5.90)   22.7330                       

(X_U5.91)   22.0000                   (X_U5.92)  -22.0000                       

(X_U5.99)    0.0000                   (X_U6.10)    9.9934                       

(X_U6.11)   14.9420                   (X_U6.12)   14.9410                       

(X_U6.13)   10.0250                   (X_U6.14)   10.0250                       

(X_U6.53)   13.0000                   (X_U6.54)  -13.0000                       

(X_U6.90)    -.0552                   (X_U6.91)   22.0000                       

(X_U6.92)  -22.0000                   (X_U6.99)    0.0000                   




    VOLTAGE SOURCE CURRENTS
    NAME         CURRENT

    V_V1        -1.109E+00
    V_V2         2.250E-02
    V_V3        -1.864E-02
    X_U2.vb     -4.804E-07
    X_U2.vc      5.430E-12
    X_U2.ve      2.235E-11
    X_U2.vlim    9.654E-04
    X_U2.vlp    -2.104E-11
    X_U2.vln    -2.297E-11
    X_U3.vb     -6.487E-08
    X_U3.vc      1.190E-11
    X_U3.ve      1.588E-11
    X_U3.vlim   -9.651E-04
    X_U3.vlp    -2.297E-11
    X_U3.vln    -2.104E-11
    X_U4.vb     -5.110E-07
    X_U4.vc      4.959E-12
    X_U4.ve      2.282E-11
    X_U4.vlim    1.200E-03
    X_U4.vlp    -2.080E-11
    X_U4.vln    -2.320E-11
    X_U5.vb     -1.469E-03
    X_U5.vc      1.971E-12
    X_U5.ve      2.581E-11
    X_U5.vlim    2.273E-02
    X_U5.vlp     1.557E-03
    X_U5.vln    -4.474E-11
    X_U6.vb     -6.745E-07
    X_U6.vc      2.264E-12
    X_U6.ve      2.552E-11
    X_U6.vlim   -5.517E-05
    X_U6.vlp    -2.206E-11
    X_U6.vln    -2.195E-11

    TOTAL POWER DISSIPATION   1.72E+01  WATTS

 NODE   VOLTAGE     NODE   VOLTAGE     NODE   VOLTAGE     NODE   VOLTAGE


( +VCC)   15.0000  ( -VCC)  -15.0000  ( OUT2)   11.0280  ( VREF)    7.5713      

(VREF2)   10.7370  (N14397)   14.5000 (N14486)    8.0359 (N15621)    8.0358     

(N15935)    7.5714 (N16344)    5.6369 (N16580)    5.6368 (N16671)    1.0914     

(N18090)   10.7370 (N18284)   10.7920 (N18859)   15.0000 (N18863)   11.7420     

(N20012)     .8605 (N20016)     .0109 (N20331)    5.9987 (X_U2.6)    -.0480     

(X_U2.7)    7.6196 (X_U2.8)    7.6196 (X_U2.9)    0.0000 (X_U3.6)    -.0064     

(X_U3.7)    1.0431 (X_U3.8)    1.0431 (X_U3.9)    0.0000 (X_U4.6)    -.0511     

(X_U4.7)    8.0958 (X_U4.8)    8.0958 (X_U4.9)    0.0000 (X_U5.6) -146.8800     

(X_U5.7)   12.1650 (X_U5.8)   12.1650 (X_U5.9)    0.0000 (X_U6.6)    -.0675     

(X_U6.7)   10.7340 (X_U6.8)   10.7340 (X_U6.9)    0.0000 (N198520)    3.1337    

(N204421)    3.5497                   (X_U2.10)    6.8284                       

(X_U2.11)   14.9420                   (X_U2.12)   14.9420                       

(X_U2.13)    6.8592                   (X_U2.14)    6.8593                       

(X_U2.53)   13.0000                   (X_U2.54)  -13.0000                       

(X_U2.90)     .9673                   (X_U2.91)   22.0000                       

(X_U2.92)  -22.0000                   (X_U2.99)    0.0000                       

(X_U3.10)    4.8945                   (X_U3.11)   14.9430                       

(X_U3.12)   14.9430                   (X_U3.13)    4.9250                       

(X_U3.14)    4.9250                   (X_U3.53)   13.0000                       

(X_U3.54)  -13.0000                   (X_U3.90)    -.9671                       

(X_U3.91)   22.0000                   (X_U3.92)  -22.0000                       

(X_U3.99)    0.0000                   (X_U4.10)    7.2928                       

(X_U4.11)   14.9420                   (X_U4.12)   14.9420                       

(X_U4.13)    7.3237                   (X_U4.14)    7.3237                       

(X_U4.53)   13.0000                   (X_U4.54)  -13.0000                       

(X_U4.90)    1.1996                   (X_U4.91)   22.0000                       

(X_U4.92)  -22.0000                   (X_U4.99)    0.0000                       

(X_U5.10)    9.9991                   (X_U5.11)   15.0000                       

(X_U5.12)   14.8830                   (X_U5.13)    9.9991                       

(X_U5.14)   10.0620                   (X_U5.53)   13.0000                       

(X_U5.54)  -13.0000                   (X_U5.90)   22.7330                       

(X_U5.91)   22.0000                   (X_U5.92)  -22.0000                       

(X_U5.99)    0.0000                   (X_U6.10)    9.9934                       

(X_U6.11)   14.9420                   (X_U6.12)   14.9410                       

(X_U6.13)   10.0250                   (X_U6.14)   10.0250                       

(X_U6.53)   13.0000                   (X_U6.54)  -13.0000                       

(X_U6.90)    -.0549                   (X_U6.91)   22.0000                       

(X_U6.92)  -22.0000                   (X_U6.99)    0.0000                   




    VOLTAGE SOURCE CURRENTS
    NAME         CURRENT

    V_V1        -1.109E+00
    V_V2         2.250E-02
    V_V3        -1.864E-02
    X_U2.vb     -4.804E-07
    X_U2.vc      5.430E-12
    X_U2.ve      2.235E-11
    X_U2.vlim    9.673E-04
    X_U2.vlp    -2.103E-11
    X_U2.vln    -2.297E-11
    X_U3.vb     -6.403E-08
    X_U3.vc      1.191E-11
    X_U3.ve      1.587E-11
    X_U3.vlim   -9.671E-04
    X_U3.vlp    -2.297E-11
    X_U3.vln    -2.103E-11
    X_U4.vb     -5.107E-07
    X_U4.vc      4.965E-12
    X_U4.ve      2.282E-11
    X_U4.vlim    1.200E-03
    X_U4.vlp    -2.080E-11
    X_U4.vln    -2.320E-11
    X_U5.vb     -1.469E-03
    X_U5.vc      1.973E-12
    X_U5.ve      2.581E-11
    X_U5.vlim    2.273E-02
    X_U5.vlp     1.557E-03
    X_U5.vln    -4.474E-11
    X_U6.vb     -6.745E-07
    X_U6.vc      2.264E-12
    X_U6.ve      2.552E-11
    X_U6.vlim   -5.486E-05
    X_U6.vlp    -2.206E-11
    X_U6.vln    -2.195E-11

    TOTAL POWER DISSIPATION   1.72E+01  WATTS

 NODE   VOLTAGE     NODE   VOLTAGE     NODE   VOLTAGE     NODE   VOLTAGE


( +VCC)   15.0000  ( -VCC)  -15.0000  ( OUT2)   11.0280  ( VREF)    7.5713      

(VREF2)   10.7370  (N14397)   14.5000 (N14486)    8.0397 (N15621)    8.0396     

(N15935)    7.5714 (N16344)    5.6395 (N16580)    5.6395 (N16671)    1.1004     

(N18090)   10.7370 (N18284)   10.7920 (N18859)   15.0000 (N18863)   11.7420     

(N20012)     .8605 (N20016)     .0109 (N20331)    5.9987 (X_U2.6)    -.0480     

(X_U2.7)    7.6196 (X_U2.8)    7.6196 (X_U2.9)    0.0000 (X_U3.6)    -.0065     

(X_U3.7)    1.0521 (X_U3.8)    1.0521 (X_U3.9)    0.0000 (X_U4.6)    -.0511     

(X_U4.7)    8.0996 (X_U4.8)    8.0996 (X_U4.9)    0.0000 (X_U5.6) -146.8800     

(X_U5.7)   12.1650 (X_U5.8)   12.1650 (X_U5.9)    0.0000 (X_U6.6)    -.0675     

(X_U6.7)   10.7340 (X_U6.8)   10.7340 (X_U6.9)    0.0000 (N198520)    3.1337    

(N204421)    3.5551                   (X_U2.10)    6.8284                       

(X_U2.11)   14.9420                   (X_U2.12)   14.9420                       

(X_U2.13)    6.8592                   (X_U2.14)    6.8593                       

(X_U2.53)   13.0000                   (X_U2.54)  -13.0000                       

(X_U2.90)     .9660                   (X_U2.91)   22.0000                       

(X_U2.92)  -22.0000                   (X_U2.99)    0.0000                       

(X_U3.10)    4.8971                   (X_U3.11)   14.9430                       

(X_U3.12)   14.9430                   (X_U3.13)    4.9277                       

(X_U3.14)    4.9277                   (X_U3.53)   13.0000                       

(X_U3.54)  -13.0000                   (X_U3.90)    -.9658                       

(X_U3.91)   22.0000                   (X_U3.92)  -22.0000                       

(X_U3.99)    0.0000                   (X_U4.10)    7.2966                       

(X_U4.11)   14.9420                   (X_U4.12)   14.9420                       

(X_U4.13)    7.3275                   (X_U4.14)    7.3275                       

(X_U4.53)   13.0000                   (X_U4.54)  -13.0000                       

(X_U4.90)    1.2001                   (X_U4.91)   22.0000                       

(X_U4.92)  -22.0000                   (X_U4.99)    0.0000                       

(X_U5.10)    9.9991                   (X_U5.11)   15.0000                       

(X_U5.12)   14.8830                   (X_U5.13)    9.9991                       

(X_U5.14)   10.0620                   (X_U5.53)   13.0000                       

(X_U5.54)  -13.0000                   (X_U5.90)   22.7330                       

(X_U5.91)   22.0000                   (X_U5.92)  -22.0000                       

(X_U5.99)    0.0000                   (X_U6.10)    9.9934                       

(X_U6.11)   14.9420                   (X_U6.12)   14.9410                       

(X_U6.13)   10.0250                   (X_U6.14)   10.0250                       

(X_U6.53)   13.0000                   (X_U6.54)  -13.0000                       

(X_U6.90)    -.0549                   (X_U6.91)   22.0000                       

(X_U6.92)  -22.0000                   (X_U6.99)    0.0000                   




    VOLTAGE SOURCE CURRENTS
    NAME         CURRENT

    V_V1        -1.109E+00
    V_V2         2.250E-02
    V_V3        -1.864E-02
    X_U2.vb     -4.804E-07
    X_U2.vc      5.430E-12
    X_U2.ve      2.235E-11
    X_U2.vlim    9.660E-04
    X_U2.vlp    -2.103E-11
    X_U2.vln    -2.297E-11
    X_U3.vb     -6.460E-08
    X_U3.vc      1.190E-11
    X_U3.ve      1.588E-11
    X_U3.vlim   -9.658E-04
    X_U3.vlp    -2.297E-11
    X_U3.vln    -2.104E-11
    X_U4.vb     -5.109E-07
    X_U4.vc      4.961E-12
    X_U4.ve      2.282E-11
    X_U4.vlim    1.200E-03
    X_U4.vlp    -2.080E-11
    X_U4.vln    -2.320E-11
    X_U5.vb     -1.469E-03
    X_U5.vc      1.973E-12
    X_U5.ve      2.581E-11
    X_U5.vlim    2.273E-02
    X_U5.vlp     1.557E-03
    X_U5.vln    -4.474E-11
    X_U6.vb     -6.745E-07
    X_U6.vc      2.264E-12
    X_U6.ve      2.552E-11
    X_U6.vlim   -5.486E-05
    X_U6.vlp    -2.206E-11
    X_U6.vln    -2.195E-11

    TOTAL POWER DISSIPATION   1.72E+01  WATTS



Mean Deviation =    1.0231E-03
Sigma          =    1.4201E-03

 RUN                    MAX DEVIATION FROM NOMINAL

R_RLIMITARE R_RLIMITARE R
                       3.7022E-03  (2.61 sigma)  higher  at T =  200.0000E-12
                        (    .3357% change per 1% change in Model Parameter)

R_R12 R_R12 R          2.8439E-03  (2.00 sigma)  higher  at T =  200.0000E-12
                        (    .2579% change per 1% change in Model Parameter)

R_R13 R_R13 R          1.6193E-03  (1.14 sigma)  higher  at T =  200.0000E-12
                        (    .1468% change per 1% change in Model Parameter)

R_R11 R_R11 R        213.6200E-06  ( .15 sigma)  higher  at T =  200.0000E-12
                        (    .0194% change per 1% change in Model Parameter)

R_R10 R_R10 R        213.6200E-06  ( .15 sigma)  lower  at T =  200.0000E-12
                        (   -.0194% change per 1% change in Model Parameter)

R_R9 R_R9 R           16.2120E-06  ( .01 sigma)  higher  at T =  200.0000E-12
                        (   1.4701E-03% change per 1% change in Model Parameter)

R_R8 R_R8 R            3.8147E-06  ( .00 sigma)  higher  at T =  200.0000E-12
                        ( 345.9100E-06% change per 1% change in Model Parameter)

R_R14 R_R14 R        953.6700E-09  ( .00 sigma)  lower  at T =  200.0000E-12
                        ( -86.4770E-06% change per 1% change in Model Parameter)

R_REZISTENTASENZOR R_REZISTENTASENZOR R
                        0       (0.00 sigma)  unchanged  at T =    0     
                        (   0     % change per 1% change in Model Parameter)

R_R6 R_R6 R             0       (0.00 sigma)  unchanged  at T =    0     
                        (   0     % change per 1% change in Model Parameter)

R_R7 R_R7 R             0       (0.00 sigma)  unchanged  at T =    0     
                        (   0     % change per 1% change in Model Parameter)

R_R4 R_R4 R             0       (0.00 sigma)  unchanged  at T =    0     
                        (   0     % change per 1% change in Model Parameter)

R_R3 R_R3 R             0       (0.00 sigma)  unchanged  at T =    0     
                        (   0     % change per 1% change in Model Parameter)

R_R2 R_R2 R             0       (0.00 sigma)  unchanged  at T =    0     
                        (   0     % change per 1% change in Model Parameter)

R_R0 R_R0 R             0       (0.00 sigma)  unchanged  at T =    0     
                        (   0     % change per 1% change in Model Parameter)

R_R1 R_R1 R             0       (0.00 sigma)  unchanged  at T =    0     
                        (   0     % change per 1% change in Model Parameter)


**** 07/03/23 19:38:02 **** PSpice 22.1.0 (6 October 2022) **** ID# 0 ********

 ** Profile: "SCHEMATIC1-sim_worstCase"  [ c:\users\maria\onedrive - technical university of cluj-napoca\desktop\proiect_cad_uwu\nasc


 ****     INITIAL TRANSIENT SOLUTION       TEMPERATURE =   27.000 DEG C

                      WORST CASE ALL DEVICES

******************************************************************************



 NODE   VOLTAGE     NODE   VOLTAGE     NODE   VOLTAGE     NODE   VOLTAGE


( +VCC)   15.0000  ( -VCC)  -15.0000  ( OUT2)   11.0710  ( VREF)    7.5713      

(VREF2)   10.7680  (N14397)   14.5000 (N14486)    8.0415 (N15621)    8.0414     

(N15935)    7.5714 (N16344)    5.6408 (N16580)    5.6408 (N16671)    1.1047     

(N18090)   10.7680 (N18284)   10.8250 (N18859)   15.0000 (N18863)   11.7420     

(N20012)     .8604 (N20016)     .0109 (N20331)    6.0144 (X_U2.6)    -.0480     

(X_U2.7)    7.6195 (X_U2.8)    7.6195 (X_U2.9)    0.0000 (X_U3.6)    -.0065     

(X_U3.7)    1.0564 (X_U3.8)    1.0564 (X_U3.9)    0.0000 (X_U4.6)    -.0511     

(X_U4.7)    8.1014 (X_U4.8)    8.1014 (X_U4.9)    0.0000 (X_U5.6) -146.9000     

(X_U5.7)   12.2080 (X_U5.8)   12.2080 (X_U5.9)    0.0000 (X_U6.6)    -.0676     

(X_U6.7)   10.7650 (X_U6.8)   10.7650 (X_U6.9)    0.0000 (N198520)    3.1339    

(N204421)    3.5524                   (X_U2.10)    6.8284                       

(X_U2.11)   14.9420                   (X_U2.12)   14.9420                       

(X_U2.13)    6.8592                   (X_U2.14)    6.8593                       

(X_U2.53)   13.0000                   (X_U2.54)  -13.0000                       

(X_U2.90)     .9654                   (X_U2.91)   22.0000                       

(X_U2.92)  -22.0000                   (X_U2.99)    0.0000                       

(X_U3.10)    4.8984                   (X_U3.11)   14.9430                       

(X_U3.12)   14.9430                   (X_U3.13)    4.9290                       

(X_U3.14)    4.9290                   (X_U3.53)   13.0000                       

(X_U3.54)  -13.0000                   (X_U3.90)    -.9651                       

(X_U3.91)   22.0000                   (X_U3.92)  -22.0000                       

(X_U3.99)    0.0000                   (X_U4.10)    7.2984                       

(X_U4.11)   14.9420                   (X_U4.12)   14.9420                       

(X_U4.13)    7.3293                   (X_U4.14)    7.3294                       

(X_U4.53)   13.0000                   (X_U4.54)  -13.0000                       

(X_U4.90)    1.2004                   (X_U4.91)   22.0000                       

(X_U4.92)  -22.0000                   (X_U4.99)    0.0000                       

(X_U5.10)   10.0320                   (X_U5.11)   15.0000                       

(X_U5.12)   14.8830                   (X_U5.13)   10.0320                       

(X_U5.14)   10.0950                   (X_U5.53)   13.0000                       

(X_U5.54)  -13.0000                   (X_U5.90)   22.7330                       

(X_U5.91)   22.0000                   (X_U5.92)  -22.0000                       

(X_U5.99)    0.0000                   (X_U6.10)   10.0240                       

(X_U6.11)   14.9420                   (X_U6.12)   14.9410                       

(X_U6.13)   10.0550                   (X_U6.14)   10.0550                       

(X_U6.53)   13.0000                   (X_U6.54)  -13.0000                       

(X_U6.90)    -.0570                   (X_U6.91)   22.0000                       

(X_U6.92)  -22.0000                   (X_U6.99)    0.0000                   




    VOLTAGE SOURCE CURRENTS
    NAME         CURRENT

    V_V1        -1.107E+00
    V_V2         2.250E-02
    V_V3        -1.864E-02
    X_U2.vb     -4.804E-07
    X_U2.vc      5.430E-12
    X_U2.ve      2.235E-11
    X_U2.vlim    9.654E-04
    X_U2.vlp    -2.104E-11
    X_U2.vln    -2.297E-11
    X_U3.vb     -6.487E-08
    X_U3.vc      1.190E-11
    X_U3.ve      1.588E-11
    X_U3.vlim   -9.651E-04
    X_U3.vlp    -2.297E-11
    X_U3.vln    -2.104E-11
    X_U4.vb     -5.110E-07
    X_U4.vc      4.959E-12
    X_U4.ve      2.282E-11
    X_U4.vlim    1.200E-03
    X_U4.vlp    -2.080E-11
    X_U4.vln    -2.320E-11
    X_U5.vb     -1.469E-03
    X_U5.vc      1.930E-12
    X_U5.ve      2.585E-11
    X_U5.vlim    2.273E-02
    X_U5.vlp     1.558E-03
    X_U5.vln    -4.474E-11
    X_U6.vb     -6.764E-07
    X_U6.vc      2.233E-12
    X_U6.ve      2.555E-11
    X_U6.vlim   -5.697E-05
    X_U6.vlp    -2.206E-11
    X_U6.vln    -2.195E-11

    TOTAL POWER DISSIPATION   1.72E+01  WATTS


**** 07/03/23 19:38:02 **** PSpice 22.1.0 (6 October 2022) **** ID# 0 ********

 ** Profile: "SCHEMATIC1-sim_worstCase"  [ c:\users\maria\onedrive - technical university of cluj-napoca\desktop\proiect_cad_uwu\nasc


 ****     UPDATED MODEL PARAMETERS         TEMPERATURE =   27.000 DEG C

                      WORST CASE ALL DEVICES

******************************************************************************



Device       MODEL        PARAMETER    NEW VALUE    
R_RezistentaSenzorR_RezistentaSenzorR               1             (Unchanged)  
R_R6         R_R6         R               1             (Unchanged)  
R_R7         R_R7         R               1             (Unchanged)  
R_R4         R_R4         R               1             (Unchanged)  
R_R3         R_R3         R               1             (Unchanged)  
R_R2         R_R2         R               1             (Unchanged)  
R_R11        R_R11        R               1.005         (Increased)  
R_R10        R_R10        R                .995         (Decreased)  
R_R8         R_R8         R               1.005         (Increased)  
R_R9         R_R9         R               1.005         (Increased)  
R_R12        R_R12        R               1.005         (Increased)  
R_RLimitare  R_RLimitare  R               1.005         (Increased)  
R_R14        R_R14        R                .995         (Decreased)  
R_R13        R_R13        R               1.005         (Increased)  
R_R0         R_R0         R               1             (Unchanged)  
R_R1         R_R1         R               1             (Unchanged)  
    

**** 07/03/23 19:38:02 **** PSpice 22.1.0 (6 October 2022) **** ID# 0 ********

 ** Profile: "SCHEMATIC1-sim_worstCase"  [ c:\users\maria\onedrive - technical university of cluj-napoca\desktop\proiect_cad_uwu\nasc


 ****     SORTED DEVIATIONS OF V(OUT2)     TEMPERATURE =   27.000 DEG C

                      WORST CASE SUMMARY

******************************************************************************





Mean Deviation =     .0431
Sigma          =    0     

 RUN                    MAX DEVIATION FROM NOMINAL

WORST CASE ALL DEVICES
                         .0431  higher  at T =  200.0000E-12
                        ( 100.39% of Nominal)



          JOB CONCLUDED

**** 07/03/23 19:38:02 **** PSpice 22.1.0 (6 October 2022) **** ID# 0 ********

 ** Profile: "SCHEMATIC1-sim_worstCase"  [ c:\users\maria\onedrive - technical university of cluj-napoca\desktop\proiect_cad_uwu\nasc


 ****     JOB STATISTICS SUMMARY


******************************************************************************



  License check-out time            =        1.33
  Total job time (using Solver 1)   =         .25
