
**** 07/04/23 11:38:18 **** PSpice 22.1.0 (6 October 2022) **** ID# 0 ********

 ** Profile: "SCHEMATIC1-simulare_oglinda"  [ c:\users\maria\onedrive - technical university of cluj-napoca\desktop\proiect_cad_uwu\n


 ****     CIRCUIT DESCRIPTION


******************************************************************************




** Creating circuit file "simulare_oglinda.cir" 
** WARNING: THIS AUTOMATICALLY GENERATED FILE MAY BE OVERWRITTEN BY SUBSEQUENT SIMULATIONS

*Libraries: 
* Profile Libraries :
* Local Libraries :
* From [PSPICE NETLIST] section of C:\SPB_Data\cdssetup\OrCAD_PSpice\22.1.0\PSpice.ini file:
.lib "C:\Users\maria\OneDrive - Technical University of Cluj-Napoca\Desktop\PROIECT_CAD_UwU\NascaMarianProiectCAD-PSpiceFiles\SCHEM"
+ "ATIC1\DiodaAlbastra.lib" 
.lib "nom.lib" 

*Analysis directives: 
.TRAN  0 10ms 0 
.STEP LIN PARAM r 14k 24k 1k 
.OPTIONS ADVCONV
.PROBE64 V(alias(*)) I(alias(*)) W(alias(*)) D(alias(*)) NOISE(alias(*)) 
.INC "..\SCHEMATIC1.net" 



**** INCLUDING SCHEMATIC1.net ****
* source NASCAMARIANPROIECTCAD
.EXTERNAL OUTPUT +VCC
.EXTERNAL OUTPUT -VCC
Q_Q1         N14397 N14397 +VCC Q2SA562
Q_Q2         N14486 N14397 +VCC Q2SA562
R_RezistentaSenzor         0 N14486 R_RezistentaSenzor {r} TC=0,0 
.model        R_RezistentaSenzor RES R=1 DEV=0.5% TC1=0 TC2=0
V_V1         +VCC 0 15Vdc
V_V2         -VCC 0 -15Vdc
X_U2         N15935 VREF +VCC -VCC VREF LM118
R_R6         +VCC N15935 R_R6 1.04k TC=0,0 
.model        R_R6 RES R=1 DEV=0.5% TC1=0 TC2=0
R_R7         0 N15935 R_R7 1.06k TC=0,0 
.model        R_R7 RES R=1 DEV=0.5% TC1=0 TC2=0
X_U3         N16344 N16580 +VCC -VCC N16671 LM118
R_R4         N15621 N16344 R_R4 2k TC=0,0 
.model        R_R4 RES R=1 DEV=0.5% TC1=0 TC2=0
R_R5         0 N16344  4.7k TC=0,0 
R_R3         N16580 N16671 R_R3 4.7k TC=0,0 
.model        R_R3 RES R=1 DEV=0.5% TC1=0 TC2=0
R_R2         VREF N16580 R_R2 2k TC=0,0 
.model        R_R2 RES R=1 DEV=0.5% TC1=0 TC2=0
X_U4         N14486 N15621 +VCC -VCC N15621 LM118
X_U5         N18284 N16671 +VCC -VCC OUT2 LM118
R_R11         0 N18090 R_R11 10 TC=0,0 
.model        R_R11 RES R=1 DEV=0.5% TC1=0 TC2=0
R_R10         +VCC N18090 R_R10 3.97 TC=0,0 
.model        R_R10 RES R=1 DEV=0.5% TC1=0 TC2=0
X_U6         N18090 VREF2 +VCC -VCC VREF2 LM118
R_R8         VREF2 N18284 R_R8 1k TC=0,0 
.model        R_R8 RES R=1 DEV=0.5% TC1=0 TC2=0
R_R9         N18284 OUT2 R_R9 4.27k TC=0,0 
.model        R_R9 RES R=1 DEV=0.5% TC1=0 TC2=0
V_V3         N18859 0 15V
D_D1         N18859 N18863 DiodaAlbastra 
R_RdiodaTest         0 N18863  630 TC=0,0 
R_R12         OUT2 N20331 R_R12 402 TC=0,0 
.model        R_R12 RES R=1 DEV=0.5% TC1=0 TC2=0
D_D2         N198520 0 DiodaAlbastra 
Q_Q3         N20016 N20012 0 Q2N1566
R_RLimitare         OUT2 N20012 R_RLimitare 1k TC=0,0 
.model        R_RLimitare RES R=1 DEV=0.5% TC1=0 TC2=0
R_R14         N20016 +VCC R_R14 3.4k TC=0,0 
.model        R_R14 RES R=1 DEV=0.5% TC1=0 TC2=0
R_R13         N20331 N198520 R_R13 229 TC=0,0 
.model        R_R13 RES R=1 DEV=0.5% TC1=0 TC2=0
R_R0         N204421 N14397 R_R0 20k TC=0,0 
.model        R_R0 RES R=1 DEV=0.5% TC1=0 TC2=0
R_R1         0 N204421 R_R1 6.49k TC=0,0 
.model        R_R1 RES R=1 DEV=0.5% TC1=0 TC2=0
.PARAM  r=14k

**** RESUMING simulare_oglinda.cir ****
.END

**** 07/04/23 11:38:18 **** PSpice 22.1.0 (6 October 2022) **** ID# 0 ********

 ** Profile: "SCHEMATIC1-simulare_oglinda"  [ c:\users\maria\onedrive - technical university of cluj-napoca\desktop\proiect_cad_uwu\n


 ****     Diode MODEL PARAMETERS


******************************************************************************




               DiodaAlbastra   X_U2.dx         X_U2.dy         X_U3.dx         
          IS   47.006000E-21  800.000000E-18  800.000000E-18  800.000000E-18 
           N    2.8335                                                       
          RS   15.45            1               1.000000E-03    1            
         CJO                                   10.000000E-12                 


               X_U3.dy         X_U4.dx         X_U4.dy         X_U5.dx         
          IS  800.000000E-18  800.000000E-18  800.000000E-18  800.000000E-18 
          RS    1.000000E-03    1               1.000000E-03    1            
         CJO   10.000000E-12                   10.000000E-12                 


               X_U5.dy         X_U6.dx         X_U6.dy         
          IS  800.000000E-18  800.000000E-18  800.000000E-18 
          RS    1.000000E-03    1               1.000000E-03 
         CJO   10.000000E-12                   10.000000E-12 


**** 07/04/23 11:38:18 **** PSpice 22.1.0 (6 October 2022) **** ID# 0 ********

 ** Profile: "SCHEMATIC1-simulare_oglinda"  [ c:\users\maria\onedrive - technical university of cluj-napoca\desktop\proiect_cad_uwu\n


 ****     BJT MODEL PARAMETERS


******************************************************************************




               Q2SA562         Q2N1566         X_U2.qx         X_U3.qx         
               PNP             NPN             NPN             NPN             
       LEVEL    1               1               1               1            
          IS    2.148000E-12   14.340000E-15  800.000000E-18  800.000000E-18 
          BF  162.9           173.4             5.833000E+03    5.833000E+03 
          NF    1               1               1               1            
         VAF  100              74.03                                         
         IKF     .8773           .2689                                       
         ISE    5.013000E-12   14.340000E-15                                 
          NE    1.655           1.272                                        
          BR   10.18            6.458           1               1            
          NR    1               1               1               1            
         VAR  100                                                            
         IKR    1.838                                                        
         ISC   28.010000E-12                                                 
          NC    1.288                                                        
          NK     .5629                                                       
         ISS    0               0               0               0            
          RB                   10                                            
          RE    0               0               0               0            
          RC     .4968          1               0               0            
         CJE    5.000000E-12   22.010000E-12    0               0            
         VJE     .75             .75             .75             .75         
         MJE     .3333           .377                                        
         CJC   27.040000E-12    9.393000E-12    0               0            
         VJC     .75             .75             .75             .75         
         MJC     .3333           .3416           .33             .33         
        XCJC    1               1               1               1            
         CJS    0               0               0               0            
         VJS     .75             .75             .75             .75         
          TF  767.900000E-12  409.700000E-12                                 
         XTF                    3                                            
         VTF   10               1.7                                          
         ITF    1                .6                                          
          TR   10.000000E-09   48.390000E-09                                 
         XTB    1.5             1.5                                          
          KF    0               0               0               0            
          AF    1               1               1               1            
          CN    2.2             2.42            2.42            2.42         
           D     .52             .87             .87             .87         


               X_U4.qx         X_U5.qx         X_U6.qx         
               NPN             NPN             NPN             
       LEVEL    1               1               1            
          IS  800.000000E-18  800.000000E-18  800.000000E-18 
          BF    5.833000E+03    5.833000E+03    5.833000E+03 
          NF    1               1               1            
          BR    1               1               1            
          NR    1               1               1            
         ISS    0               0               0            
          RE    0               0               0            
          RC    0               0               0            
         CJE    0               0               0            
         VJE     .75             .75             .75         
         CJC    0               0               0            
         VJC     .75             .75             .75         
         MJC     .33             .33             .33         
        XCJC    1               1               1            
         CJS    0               0               0            
         VJS     .75             .75             .75         
          KF    0               0               0            
          AF    1               1               1            
          CN    2.42            2.42            2.42         
           D     .87             .87             .87         


**** 07/04/23 11:38:18 **** PSpice 22.1.0 (6 October 2022) **** ID# 0 ********

 ** Profile: "SCHEMATIC1-simulare_oglinda"  [ c:\users\maria\onedrive - technical university of cluj-napoca\desktop\proiect_cad_uwu\n


 ****     Resistor MODEL PARAMETERS


******************************************************************************




               R_RezistentaSenzor              R_R6            R_R7            
           R    1                               1               1            


               R_R4            R_R3            R_R2            R_R11           
           R    1               1               1               1            


               R_R10           R_R8            R_R9            R_R12           
           R    1               1               1               1            


               R_RLimitare     R_R14           R_R13           R_R0            
           R    1               1               1               1            


               R_R1            
           R    1            


**** 07/04/23 11:38:18 **** PSpice 22.1.0 (6 October 2022) **** ID# 0 ********

 ** Profile: "SCHEMATIC1-simulare_oglinda"  [ c:\users\maria\onedrive - technical university of cluj-napoca\desktop\proiect_cad_uwu\n


 ****     INITIAL TRANSIENT SOLUTION       TEMPERATURE =   27.000 DEG C

 ****     CURRENT STEP                     PARAM R =   14.0000E+03


******************************************************************************



 NODE   VOLTAGE     NODE   VOLTAGE     NODE   VOLTAGE     NODE   VOLTAGE


( +VCC)   15.0000  ( -VCC)  -15.0000  ( OUT2)   11.0280  ( VREF)    7.5713      

(VREF2)   10.7370  (N14397)   14.5000 (N14486)    8.0415 (N15621)    8.0414     

(N15935)    7.5714 (N16344)    5.6408 (N16580)    5.6408 (N16671)    1.1047     

(N18090)   10.7370 (N18284)   10.7920 (N18859)   15.0000 (N18863)   11.7420     

(N20012)     .8605 (N20016)     .0109 (N20331)    5.9987 (X_U2.6)    -.0480     

(X_U2.7)    7.6195 (X_U2.8)    7.6195 (X_U2.9)    0.0000 (X_U3.6)    -.0065     

(X_U3.7)    1.0564 (X_U3.8)    1.0564 (X_U3.9)    0.0000 (X_U4.6)    -.0511     

(X_U4.7)    8.1014 (X_U4.8)    8.1014 (X_U4.9)    0.0000 (X_U5.6) -146.8800     

(X_U5.7)   12.1650 (X_U5.8)   12.1650 (X_U5.9)    0.0000 (X_U6.6)    -.0675     

(X_U6.7)   10.7340 (X_U6.8)   10.7340 (X_U6.9)    0.0000 (N198520)    3.1337    

(N204421)    3.5524                   (X_U2.10)    6.8284                       

(X_U2.11)   14.9420                   (X_U2.12)   14.9420                       

(X_U2.13)    6.8592                   (X_U2.14)    6.8593                       

(X_U2.53)   13.0000                   (X_U2.54)  -13.0000                       

(X_U2.90)     .9654                   (X_U2.91)   22.0000                       

(X_U2.92)  -22.0000                   (X_U2.99)    0.0000                       

(X_U3.10)    4.8984                   (X_U3.11)   14.9430                       

(X_U3.12)   14.9430                   (X_U3.13)    4.9290                       

(X_U3.14)    4.9290                   (X_U3.53)   13.0000                       

(X_U3.54)  -13.0000                   (X_U3.90)    -.9651                       

(X_U3.91)   22.0000                   (X_U3.92)  -22.0000                       

(X_U3.99)    0.0000                   (X_U4.10)    7.2984                       

(X_U4.11)   14.9420                   (X_U4.12)   14.9420                       

(X_U4.13)    7.3293                   (X_U4.14)    7.3294                       

(X_U4.53)   13.0000                   (X_U4.54)  -13.0000                       

(X_U4.90)    1.2004                   (X_U4.91)   22.0000                       

(X_U4.92)  -22.0000                   (X_U4.99)    0.0000                       

(X_U5.10)    9.9991                   (X_U5.11)   15.0000                       

(X_U5.12)   14.8830                   (X_U5.13)    9.9991                       

(X_U5.14)   10.0620                   (X_U5.53)   13.0000                       

(X_U5.54)  -13.0000                   (X_U5.90)   22.7330                       

(X_U5.91)   22.0000                   (X_U5.92)  -22.0000                       

(X_U5.99)    0.0000                   (X_U6.10)    9.9934                       

(X_U6.11)   14.9420                   (X_U6.12)   14.9410                       

(X_U6.13)   10.0250                   (X_U6.14)   10.0250                       

(X_U6.53)   13.0000                   (X_U6.54)  -13.0000                       

(X_U6.90)    -.0549                   (X_U6.91)   22.0000                       

(X_U6.92)  -22.0000                   (X_U6.99)    0.0000                   




    VOLTAGE SOURCE CURRENTS
    NAME         CURRENT

    V_V1        -1.109E+00
    V_V2         2.250E-02
    V_V3        -1.864E-02
    X_U2.vb     -4.804E-07
    X_U2.vc      5.430E-12
    X_U2.ve      2.235E-11
    X_U2.vlim    9.654E-04
    X_U2.vlp    -2.104E-11
    X_U2.vln    -2.297E-11
    X_U3.vb     -6.487E-08
    X_U3.vc      1.190E-11
    X_U3.ve      1.588E-11
    X_U3.vlim   -9.651E-04
    X_U3.vlp    -2.297E-11
    X_U3.vln    -2.104E-11
    X_U4.vb     -5.110E-07
    X_U4.vc      4.959E-12
    X_U4.ve      2.282E-11
    X_U4.vlim    1.200E-03
    X_U4.vlp    -2.080E-11
    X_U4.vln    -2.320E-11
    X_U5.vb     -1.469E-03
    X_U5.vc      1.973E-12
    X_U5.ve      2.581E-11
    X_U5.vlim    2.273E-02
    X_U5.vlp     1.557E-03
    X_U5.vln    -4.474E-11
    X_U6.vb     -6.745E-07
    X_U6.vc      2.264E-12
    X_U6.ve      2.552E-11
    X_U6.vlim   -5.486E-05
    X_U6.vlp    -2.206E-11
    X_U6.vln    -2.195E-11

    TOTAL POWER DISSIPATION   1.72E+01  WATTS


**** 07/04/23 11:38:18 **** PSpice 22.1.0 (6 October 2022) **** ID# 0 ********

 ** Profile: "SCHEMATIC1-simulare_oglinda"  [ c:\users\maria\onedrive - technical university of cluj-napoca\desktop\proiect_cad_uwu\n


 ****     INITIAL TRANSIENT SOLUTION       TEMPERATURE =   27.000 DEG C

 ****     CURRENT STEP                     PARAM R =   15.0000E+03


******************************************************************************



 NODE   VOLTAGE     NODE   VOLTAGE     NODE   VOLTAGE     NODE   VOLTAGE


( +VCC)   15.0000  ( -VCC)  -15.0000  ( OUT2)   11.0280  ( VREF)    7.5713      

(VREF2)   10.7370  (N14397)   14.5000 (N14486)    8.5727 (N15621)    8.5726     

(N15935)    7.5714 (N16344)    6.0134 (N16580)    6.0134 (N16671)    2.3529     

(N18090)   10.7370 (N18284)   10.7920 (N18859)   15.0000 (N18863)   11.7420     

(N20012)     .8605 (N20016)     .0109 (N20331)    5.9987 (X_U2.6)    -.0479     

(X_U2.7)    7.6102 (X_U2.8)    7.6102 (X_U2.9)    0.0000 (X_U3.6)    -.0144     

(X_U3.7)    2.3140 (X_U3.8)    2.3140 (X_U3.9)    0.0000 (X_U4.6)    -.0545     

(X_U4.7)    8.6366 (X_U4.8)    8.6366 (X_U4.9)    0.0000 (X_U5.6) -146.8800     

(X_U5.7)   12.1650 (X_U5.8)   12.1650 (X_U5.9)    0.0000 (X_U6.6)    -.0675     

(X_U6.7)   10.7340 (X_U6.8)   10.7340 (X_U6.9)    0.0000 (N198520)    3.1337    

(N204421)    3.5524                   (X_U2.10)    6.8284                       

(X_U2.11)   14.9420                   (X_U2.12)   14.9420                       

(X_U2.13)    6.8592                   (X_U2.14)    6.8593                       

(X_U2.53)   13.0000                   (X_U2.54)  -13.0000                       

(X_U2.90)     .7791                   (X_U2.91)   22.0000                       

(X_U2.92)  -22.0000                   (X_U2.99)    0.0000                       

(X_U3.10)    5.2709                   (X_U3.11)   14.9430                       

(X_U3.12)   14.9430                   (X_U3.13)    5.3015                       

(X_U3.14)    5.3016                   (X_U3.53)   13.0000                       

(X_U3.54)  -13.0000                   (X_U3.90)    -.7788                       

(X_U3.91)   22.0000                   (X_U3.92)  -22.0000                       

(X_U3.99)    0.0000                   (X_U4.10)    7.8295                       

(X_U4.11)   14.9420                   (X_U4.12)   14.9420                       

(X_U4.13)    7.8604                   (X_U4.14)    7.8605                       

(X_U4.53)   13.0000                   (X_U4.54)  -13.0000                       

(X_U4.90)    1.2797                   (X_U4.91)   22.0000                       

(X_U4.92)  -22.0000                   (X_U4.99)    0.0000                       

(X_U5.10)    9.9991                   (X_U5.11)   15.0000                       

(X_U5.12)   14.8830                   (X_U5.13)    9.9991                       

(X_U5.14)   10.0620                   (X_U5.53)   13.0000                       

(X_U5.54)  -13.0000                   (X_U5.90)   22.7330                       

(X_U5.91)   22.0000                   (X_U5.92)  -22.0000                       

(X_U5.99)    0.0000                   (X_U6.10)    9.9934                       

(X_U6.11)   14.9420                   (X_U6.12)   14.9410                       

(X_U6.13)   10.0250                   (X_U6.14)   10.0250                       

(X_U6.53)   13.0000                   (X_U6.54)  -13.0000                       

(X_U6.90)    -.0549                   (X_U6.91)   22.0000                       

(X_U6.92)  -22.0000                   (X_U6.99)    0.0000                   




    VOLTAGE SOURCE CURRENTS
    NAME         CURRENT

    V_V1        -1.109E+00
    V_V2         2.250E-02
    V_V3        -1.864E-02
    X_U2.vb     -4.795E-07
    X_U2.vc      5.430E-12
    X_U2.ve      2.235E-11
    X_U2.vlim    7.791E-04
    X_U2.vlp    -2.122E-11
    X_U2.vln    -2.278E-11
    X_U3.vb     -1.442E-07
    X_U3.vc      1.065E-11
    X_U3.ve      1.713E-11
    X_U3.vlim   -7.788E-04
    X_U3.vlp    -2.278E-11
    X_U3.vln    -2.122E-11
    X_U4.vb     -5.448E-07
    X_U4.vc      4.428E-12
    X_U4.ve      2.335E-11
    X_U4.vlim    1.280E-03
    X_U4.vlp    -2.072E-11
    X_U4.vln    -2.328E-11
    X_U5.vb     -1.469E-03
    X_U5.vc      1.973E-12
    X_U5.ve      2.581E-11
    X_U5.vlim    2.273E-02
    X_U5.vlp     1.557E-03
    X_U5.vln    -4.474E-11
    X_U6.vb     -6.745E-07
    X_U6.vc      2.264E-12
    X_U6.ve      2.552E-11
    X_U6.vlim   -5.486E-05
    X_U6.vlp    -2.206E-11
    X_U6.vln    -2.195E-11

    TOTAL POWER DISSIPATION   1.72E+01  WATTS


**** 07/04/23 11:38:18 **** PSpice 22.1.0 (6 October 2022) **** ID# 0 ********

 ** Profile: "SCHEMATIC1-simulare_oglinda"  [ c:\users\maria\onedrive - technical university of cluj-napoca\desktop\proiect_cad_uwu\n


 ****     INITIAL TRANSIENT SOLUTION       TEMPERATURE =   27.000 DEG C

 ****     CURRENT STEP                     PARAM R =   16.0000E+03


******************************************************************************



 NODE   VOLTAGE     NODE   VOLTAGE     NODE   VOLTAGE     NODE   VOLTAGE


( +VCC)   15.0000  ( -VCC)  -15.0000  ( OUT2)   11.0280  ( VREF)    7.5713      

(VREF2)   10.7370  (N14397)   14.5000 (N14486)    9.0986 (N15621)    9.0985     

(N15935)    7.5714 (N16344)    6.3823 (N16580)    6.3823 (N16671)    3.5887     

(N18090)   10.7370 (N18284)   10.7920 (N18859)   15.0000 (N18863)   11.7420     

(N20012)     .8605 (N20016)     .0109 (N20331)    5.9987 (X_U2.6)    -.0479     

(X_U2.7)    7.6010 (X_U2.8)    7.6010 (X_U2.9)    0.0000 (X_U3.6)    -.0223     

(X_U3.7)    3.5590 (X_U3.8)    3.5590 (X_U3.9)    0.0000 (X_U4.6)    -.0578     

(X_U4.7)    9.1664 (X_U4.8)    9.1664 (X_U4.9)    0.0000 (X_U5.6) -146.8800     

(X_U5.7)   12.1650 (X_U5.8)   12.1650 (X_U5.9)    0.0000 (X_U6.6)    -.0675     

(X_U6.7)   10.7340 (X_U6.8)   10.7340 (X_U6.9)    0.0000 (N198520)    3.1337    

(N204421)    3.5524                   (X_U2.10)    6.8284                       

(X_U2.11)   14.9420                   (X_U2.12)   14.9420                       

(X_U2.13)    6.8592                   (X_U2.14)    6.8593                       

(X_U2.53)   13.0000                   (X_U2.54)  -13.0000                       

(X_U2.90)     .5946                   (X_U2.91)   22.0000                       

(X_U2.92)  -22.0000                   (X_U2.99)    0.0000                       

(X_U3.10)    5.6397                   (X_U3.11)   14.9430                       

(X_U3.12)   14.9430                   (X_U3.13)    5.6704                       

(X_U3.14)    5.6704                   (X_U3.53)   13.0000                       

(X_U3.54)  -13.0000                   (X_U3.90)    -.5944                       

(X_U3.91)   22.0000                   (X_U3.92)  -22.0000                       

(X_U3.99)    0.0000                   (X_U4.10)    8.3552                       

(X_U4.11)   14.9420                   (X_U4.12)   14.9420                       

(X_U4.13)    8.3862                   (X_U4.14)    8.3863                       

(X_U4.53)   13.0000                   (X_U4.54)  -13.0000                       

(X_U4.90)    1.3582                   (X_U4.91)   22.0000                       

(X_U4.92)  -22.0000                   (X_U4.99)    0.0000                       

(X_U5.10)    9.9991                   (X_U5.11)   15.0000                       

(X_U5.12)   14.8830                   (X_U5.13)    9.9991                       

(X_U5.14)   10.0620                   (X_U5.53)   13.0000                       

(X_U5.54)  -13.0000                   (X_U5.90)   22.7330                       

(X_U5.91)   22.0000                   (X_U5.92)  -22.0000                       

(X_U5.99)    0.0000                   (X_U6.10)    9.9934                       

(X_U6.11)   14.9420                   (X_U6.12)   14.9410                       

(X_U6.13)   10.0250                   (X_U6.14)   10.0250                       

(X_U6.53)   13.0000                   (X_U6.54)  -13.0000                       

(X_U6.90)    -.0549                   (X_U6.91)   22.0000                       

(X_U6.92)  -22.0000                   (X_U6.99)    0.0000                   




    VOLTAGE SOURCE CURRENTS
    NAME         CURRENT

    V_V1        -1.109E+00
    V_V2         2.250E-02
    V_V3        -1.864E-02
    X_U2.vb     -4.786E-07
    X_U2.vc      5.430E-12
    X_U2.ve      2.235E-11
    X_U2.vlim    5.946E-04
    X_U2.vlp    -2.141E-11
    X_U2.vln    -2.260E-11
    X_U3.vb     -2.227E-07
    X_U3.vc      9.412E-12
    X_U3.ve      1.837E-11
    X_U3.vlim   -5.944E-04
    X_U3.vlp    -2.260E-11
    X_U3.vln    -2.141E-11
    X_U4.vb     -5.782E-07
    X_U4.vc      3.902E-12
    X_U4.ve      2.388E-11
    X_U4.vlim    1.358E-03
    X_U4.vlp    -2.064E-11
    X_U4.vln    -2.336E-11
    X_U5.vb     -1.469E-03
    X_U5.vc      1.973E-12
    X_U5.ve      2.581E-11
    X_U5.vlim    2.273E-02
    X_U5.vlp     1.557E-03
    X_U5.vln    -4.474E-11
    X_U6.vb     -6.745E-07
    X_U6.vc      2.264E-12
    X_U6.ve      2.552E-11
    X_U6.vlim   -5.486E-05
    X_U6.vlp    -2.206E-11
    X_U6.vln    -2.195E-11

    TOTAL POWER DISSIPATION   1.72E+01  WATTS


**** 07/04/23 11:38:18 **** PSpice 22.1.0 (6 October 2022) **** ID# 0 ********

 ** Profile: "SCHEMATIC1-simulare_oglinda"  [ c:\users\maria\onedrive - technical university of cluj-napoca\desktop\proiect_cad_uwu\n


 ****     INITIAL TRANSIENT SOLUTION       TEMPERATURE =   27.000 DEG C

 ****     CURRENT STEP                     PARAM R =   17.0000E+03


******************************************************************************



 NODE   VOLTAGE     NODE   VOLTAGE     NODE   VOLTAGE     NODE   VOLTAGE


( +VCC)   15.0000  ( -VCC)  -15.0000  ( OUT2)   11.0280  ( VREF)    7.5713      

(VREF2)   10.7370  (N14397)   14.5000 (N14486)    9.6193 (N15621)    9.6191     

(N15935)    7.5714 (N16344)    6.7476 (N16580)    6.7475 (N16671)    4.8122     

(N18090)   10.7370 (N18284)   10.7920 (N18859)   15.0000 (N18863)   11.7420     

(N20012)     .8605 (N20016)     .0109 (N20331)    5.9987 (X_U2.6)    -.0478     

(X_U2.7)    7.5919 (X_U2.8)    7.5919 (X_U2.9)    0.0000 (X_U3.6)    -.0300     

(X_U3.7)    4.7916 (X_U3.8)    4.7916 (X_U3.9)    0.0000 (X_U4.6)    -.0611     

(X_U4.7)    9.6909 (X_U4.8)    9.6909 (X_U4.9)    0.0000 (X_U5.6) -146.8800     

(X_U5.7)   12.1650 (X_U5.8)   12.1650 (X_U5.9)    0.0000 (X_U6.6)    -.0675     

(X_U6.7)   10.7340 (X_U6.8)   10.7340 (X_U6.9)    0.0000 (N198520)    3.1337    

(N204421)    3.5524                   (X_U2.10)    6.8284                       

(X_U2.11)   14.9420                   (X_U2.12)   14.9420                       

(X_U2.13)    6.8592                   (X_U2.14)    6.8593                       

(X_U2.53)   13.0000                   (X_U2.54)  -13.0000                       

(X_U2.90)     .4120                   (X_U2.91)   22.0000                       

(X_U2.92)  -22.0000                   (X_U2.99)    0.0000                       

(X_U3.10)    6.0048                   (X_U3.11)   14.9430                       

(X_U3.12)   14.9430                   (X_U3.13)    6.0355                       

(X_U3.14)    6.0356                   (X_U3.53)   13.0000                       

(X_U3.54)  -13.0000                   (X_U3.90)    -.4118                       

(X_U3.91)   22.0000                   (X_U3.92)  -22.0000                       

(X_U3.99)    0.0000                   (X_U4.10)    8.8757                       

(X_U4.11)   14.9420                   (X_U4.12)   14.9420                       

(X_U4.13)    8.9068                   (X_U4.14)    8.9069                       

(X_U4.53)   13.0000                   (X_U4.54)  -13.0000                       

(X_U4.90)    1.4359                   (X_U4.91)   22.0000                       

(X_U4.92)  -22.0000                   (X_U4.99)    0.0000                       

(X_U5.10)    9.9991                   (X_U5.11)   15.0000                       

(X_U5.12)   14.8830                   (X_U5.13)    9.9991                       

(X_U5.14)   10.0620                   (X_U5.53)   13.0000                       

(X_U5.54)  -13.0000                   (X_U5.90)   22.7330                       

(X_U5.91)   22.0000                   (X_U5.92)  -22.0000                       

(X_U5.99)    0.0000                   (X_U6.10)    9.9934                       

(X_U6.11)   14.9420                   (X_U6.12)   14.9410                       

(X_U6.13)   10.0250                   (X_U6.14)   10.0250                       

(X_U6.53)   13.0000                   (X_U6.54)  -13.0000                       

(X_U6.90)    -.0549                   (X_U6.91)   22.0000                       

(X_U6.92)  -22.0000                   (X_U6.99)    0.0000                   




    VOLTAGE SOURCE CURRENTS
    NAME         CURRENT

    V_V1        -1.109E+00
    V_V2         2.250E-02
    V_V3        -1.864E-02
    X_U2.vb     -4.777E-07
    X_U2.vc      5.430E-12
    X_U2.ve      2.235E-11
    X_U2.vlim    4.120E-04
    X_U2.vlp    -2.159E-11
    X_U2.vln    -2.241E-11
    X_U3.vb     -3.005E-07
    X_U3.vc      8.189E-12
    X_U3.ve      1.959E-11
    X_U3.vlim   -4.118E-04
    X_U3.vlp    -2.241E-11
    X_U3.vln    -2.159E-11
    X_U4.vb     -6.113E-07
    X_U4.vc      3.382E-12
    X_U4.ve      2.440E-11
    X_U4.vlim    1.436E-03
    X_U4.vlp    -2.056E-11
    X_U4.vln    -2.344E-11
    X_U5.vb     -1.469E-03
    X_U5.vc      1.973E-12
    X_U5.ve      2.581E-11
    X_U5.vlim    2.273E-02
    X_U5.vlp     1.557E-03
    X_U5.vln    -4.474E-11
    X_U6.vb     -6.745E-07
    X_U6.vc      2.264E-12
    X_U6.ve      2.552E-11
    X_U6.vlim   -5.486E-05
    X_U6.vlp    -2.206E-11
    X_U6.vln    -2.195E-11

    TOTAL POWER DISSIPATION   1.72E+01  WATTS


**** 07/04/23 11:38:18 **** PSpice 22.1.0 (6 October 2022) **** ID# 0 ********

 ** Profile: "SCHEMATIC1-simulare_oglinda"  [ c:\users\maria\onedrive - technical university of cluj-napoca\desktop\proiect_cad_uwu\n


 ****     INITIAL TRANSIENT SOLUTION       TEMPERATURE =   27.000 DEG C

 ****     CURRENT STEP                     PARAM R =   18.0000E+03


******************************************************************************



 NODE   VOLTAGE     NODE   VOLTAGE     NODE   VOLTAGE     NODE   VOLTAGE


( +VCC)   15.0000  ( -VCC)  -15.0000  ( OUT2)   11.0280  ( VREF)    7.5713      

(VREF2)   10.7370  (N14397)   14.5000 (N14486)   10.1350 (N15621)   10.1350     

(N15935)    7.5714 (N16344)    7.1092 (N16580)    7.1091 (N16671)    6.0236     

(N18090)   10.7370 (N18284)   10.7920 (N18859)   15.0000 (N18863)   11.7420     

(N20012)     .8605 (N20016)     .0109 (N20331)    5.9987 (X_U2.6)    -.0477     

(X_U2.7)    7.5828 (X_U2.8)    7.5828 (X_U2.9)    0.0000 (X_U3.6)    -.0377     

(X_U3.7)    6.0121 (X_U3.8)    6.0121 (X_U3.9)    0.0000 (X_U4.6)    -.0644     

(X_U4.7)   10.2100 (X_U4.8)   10.2100 (X_U4.9)    0.0000 (X_U5.6) -146.8800     

(X_U5.7)   12.1650 (X_U5.8)   12.1650 (X_U5.9)    0.0000 (X_U6.6)    -.0675     

(X_U6.7)   10.7340 (X_U6.8)   10.7340 (X_U6.9)    0.0000 (N198520)    3.1337    

(N204421)    3.5524                   (X_U2.10)    6.8284                       

(X_U2.11)   14.9420                   (X_U2.12)   14.9420                       

(X_U2.13)    6.8592                   (X_U2.14)    6.8593                       

(X_U2.53)   13.0000                   (X_U2.54)  -13.0000                       

(X_U2.90)     .2312                   (X_U2.91)   22.0000                       

(X_U2.92)  -22.0000                   (X_U2.99)    0.0000                       

(X_U3.10)    6.3664                   (X_U3.11)   14.9430                       

(X_U3.12)   14.9420                   (X_U3.13)    6.3971                       

(X_U3.14)    6.3972                   (X_U3.53)   13.0000                       

(X_U3.54)  -13.0000                   (X_U3.90)    -.2310                       

(X_U3.91)   22.0000                   (X_U3.92)  -22.0000                       

(X_U3.99)    0.0000                   (X_U4.10)    9.3911                       

(X_U4.11)   14.9420                   (X_U4.12)   14.9420                       

(X_U4.13)    9.4223                   (X_U4.14)    9.4224                       

(X_U4.53)   13.0000                   (X_U4.54)  -13.0000                       

(X_U4.90)    1.5128                   (X_U4.91)   22.0000                       

(X_U4.92)  -22.0000                   (X_U4.99)    0.0000                       

(X_U5.10)    9.9991                   (X_U5.11)   15.0000                       

(X_U5.12)   14.8830                   (X_U5.13)    9.9991                       

(X_U5.14)   10.0620                   (X_U5.53)   13.0000                       

(X_U5.54)  -13.0000                   (X_U5.90)   22.7330                       

(X_U5.91)   22.0000                   (X_U5.92)  -22.0000                       

(X_U5.99)    0.0000                   (X_U6.10)    9.9934                       

(X_U6.11)   14.9420                   (X_U6.12)   14.9410                       

(X_U6.13)   10.0250                   (X_U6.14)   10.0250                       

(X_U6.53)   13.0000                   (X_U6.54)  -13.0000                       

(X_U6.90)    -.0549                   (X_U6.91)   22.0000                       

(X_U6.92)  -22.0000                   (X_U6.99)    0.0000                   




    VOLTAGE SOURCE CURRENTS
    NAME         CURRENT

    V_V1        -1.109E+00
    V_V2         2.250E-02
    V_V3        -1.864E-02
    X_U2.vb     -4.769E-07
    X_U2.vc      5.430E-12
    X_U2.ve      2.235E-11
    X_U2.vlim    2.312E-04
    X_U2.vlp    -2.177E-11
    X_U2.vln    -2.223E-11
    X_U3.vb     -3.775E-07
    X_U3.vc      6.977E-12
    X_U3.ve      2.080E-11
    X_U3.vlim   -2.310E-04
    X_U3.vlp    -2.223E-11
    X_U3.vln    -2.177E-11
    X_U4.vb     -6.440E-07
    X_U4.vc      2.866E-12
    X_U4.ve      2.491E-11
    X_U4.vlim    1.513E-03
    X_U4.vlp    -2.049E-11
    X_U4.vln    -2.351E-11
    X_U5.vb     -1.469E-03
    X_U5.vc      1.973E-12
    X_U5.ve      2.581E-11
    X_U5.vlim    2.273E-02
    X_U5.vlp     1.557E-03
    X_U5.vln    -4.474E-11
    X_U6.vb     -6.745E-07
    X_U6.vc      2.264E-12
    X_U6.ve      2.552E-11
    X_U6.vlim   -5.486E-05
    X_U6.vlp    -2.206E-11
    X_U6.vln    -2.195E-11

    TOTAL POWER DISSIPATION   1.72E+01  WATTS


**** 07/04/23 11:38:18 **** PSpice 22.1.0 (6 October 2022) **** ID# 0 ********

 ** Profile: "SCHEMATIC1-simulare_oglinda"  [ c:\users\maria\onedrive - technical university of cluj-napoca\desktop\proiect_cad_uwu\n


 ****     INITIAL TRANSIENT SOLUTION       TEMPERATURE =   27.000 DEG C

 ****     CURRENT STEP                     PARAM R =   19.0000E+03


******************************************************************************



 NODE   VOLTAGE     NODE   VOLTAGE     NODE   VOLTAGE     NODE   VOLTAGE


( +VCC)   15.0000  ( -VCC)  -15.0000  ( OUT2)  -13.7950  ( VREF)    7.5713      

(VREF2)   10.7370  (N14397)   14.5000 (N14486)   10.6450 (N15621)   10.6450     

(N15935)    7.5714 (N16344)    7.4673 (N16580)    7.4672 (N16671)    7.2231     

(N18090)   10.7370 (N18284)    6.0820 (N18859)   15.0000 (N18863)   11.7420     

(N20012)  -13.7950 (N20016)   15.0000 (N20331)  -13.7950 (X_U2.6)    -.0476     

(X_U2.7)    7.5739 (X_U2.8)    7.5739 (X_U2.9)    0.0000 (X_U3.6)    -.0454     

(X_U3.7)    7.2206 (X_U3.8)    7.2206 (X_U3.9)    0.0000 (X_U4.6)    -.0676     

(X_U4.7)   10.7250 (X_U4.8)   10.7250 (X_U4.9)    0.0000 (X_U5.6)  144.5900     

(X_U5.7)  -14.9320 (X_U5.8)  -14.9320 (X_U5.9)    0.0000 (X_U6.6)    -.0697     

(X_U6.7)   10.9700 (X_U6.8)   10.9700 (X_U6.9)    0.0000 (N198520)  -13.7950    

(N204421)    3.5524                   (X_U2.10)    6.8284                       

(X_U2.11)   14.9420                   (X_U2.12)   14.9420                       

(X_U2.13)    6.8592                   (X_U2.14)    6.8593                       

(X_U2.53)   13.0000                   (X_U2.54)  -13.0000                       

(X_U2.90)     .0522                   (X_U2.91)   22.0000                       

(X_U2.92)  -22.0000                   (X_U2.99)    0.0000                       

(X_U3.10)    6.7243                   (X_U3.11)   14.9420                       

(X_U3.12)   14.9420                   (X_U3.13)    6.7551                       

(X_U3.14)    6.7552                   (X_U3.53)   13.0000                       

(X_U3.54)  -13.0000                   (X_U3.90)    -.0517                       

(X_U3.91)   22.0000                   (X_U3.92)  -22.0000                       

(X_U3.99)    0.0000                   (X_U4.10)    9.9014                       

(X_U4.11)   14.9420                   (X_U4.12)   14.9410                       

(X_U4.13)    9.9327                   (X_U4.14)    9.9328                       

(X_U4.53)   13.0000                   (X_U4.54)  -13.0000                       

(X_U4.90)    1.5890                   (X_U4.91)   22.0000                       

(X_U4.92)  -22.0000                   (X_U4.99)    0.0000                       

(X_U5.10)    6.4316                   (X_U5.11)   14.8850                       

(X_U5.12)   15.0000                   (X_U5.13)    6.4932                       

(X_U5.14)    6.4316                   (X_U5.53)   13.0000                       

(X_U5.54)  -13.0000                   (X_U5.90)  -22.7320                       

(X_U5.91)   22.0000                   (X_U5.92)  -22.0000                       

(X_U5.99)    0.0000                   (X_U6.10)    9.9934                       

(X_U6.11)   14.9420                   (X_U6.12)   14.9410                       

(X_U6.13)   10.0250                   (X_U6.14)   10.0250                       

(X_U6.53)   13.0000                   (X_U6.54)  -13.0000                       

(X_U6.90)    4.6552                   (X_U6.91)   22.0000                       

(X_U6.92)  -22.0000                   (X_U6.99)    0.0000                   




    VOLTAGE SOURCE CURRENTS
    NAME         CURRENT

    V_V1        -1.105E+00
    V_V2         4.422E-03
    V_V3        -1.864E-02
    X_U2.vb     -4.761E-07
    X_U2.vc      5.430E-12
    X_U2.ve      2.235E-11
    X_U2.vlim    5.217E-05
    X_U2.vlp    -2.195E-11
    X_U2.vln    -2.205E-11
    X_U3.vb     -4.537E-07
    X_U3.vc      5.778E-12
    X_U3.ve      2.200E-11
    X_U3.vlim   -5.167E-05
    X_U3.vlp    -2.205E-11
    X_U3.vln    -2.195E-11
    X_U4.vb     -6.765E-07
    X_U4.vc      2.356E-12
    X_U4.ve      2.543E-11
    X_U4.vlim    1.589E-03
    X_U4.vlp    -2.041E-11
    X_U4.vln    -2.359E-11
    X_U5.vb      1.446E-03
    X_U5.vc      2.680E-11
    X_U5.ve     -1.808E-02
    X_U5.vlim   -2.273E-02
    X_U5.vlp    -4.473E-11
    X_U5.vln     1.503E-03
    X_U6.vb     -6.967E-07
    X_U6.vc      2.264E-12
    X_U6.ve      2.552E-11
    X_U6.vlim    4.655E-03
    X_U6.vlp    -1.735E-11
    X_U6.vln    -2.666E-11

    TOTAL POWER DISSIPATION   1.69E+01  WATTS


**** 07/04/23 11:38:18 **** PSpice 22.1.0 (6 October 2022) **** ID# 0 ********

 ** Profile: "SCHEMATIC1-simulare_oglinda"  [ c:\users\maria\onedrive - technical university of cluj-napoca\desktop\proiect_cad_uwu\n


 ****     INITIAL TRANSIENT SOLUTION       TEMPERATURE =   27.000 DEG C

 ****     CURRENT STEP                     PARAM R =   20.0000E+03


******************************************************************************



 NODE   VOLTAGE     NODE   VOLTAGE     NODE   VOLTAGE     NODE   VOLTAGE


( +VCC)   15.0000  ( -VCC)  -15.0000  ( OUT2)   -1.5212  ( VREF)    7.5713      

(VREF2)   10.7370  (N14397)   14.5000 (N14486)   11.1510 (N15621)   11.1510     

(N15935)    7.5714 (N16344)    7.8218 (N16580)    7.8217 (N16671)    8.4109     

(N18090)   10.7370 (N18284)    8.4110 (N18859)   15.0000 (N18863)   11.7420     

(N20012)   -1.5212 (N20016)   15.0000 (N20331)   -1.5212 (X_U2.6)    -.0475     

(X_U2.7)    7.5650 (X_U2.8)    7.5650 (X_U2.9)    0.0000 (X_U3.6)    -.0529     

(X_U3.7)    8.4172 (X_U3.8)    8.4172 (X_U3.9)    0.0000 (X_U4.6)    -.0709     

(X_U4.7)   11.2340 (X_U4.8)   11.2340 (X_U4.9)    0.0000 (X_U5.6)     .0107     

(X_U5.7)   -1.6375 (X_U5.8)   -1.6375 (X_U5.9)    0.0000 (X_U6.6)    -.0686     

(X_U6.7)   10.8530 (X_U6.8)   10.8530 (X_U6.9)    0.0000 (N198520)   -1.5212    

(N204421)    3.5524                   (X_U2.10)    6.8284                       

(X_U2.11)   14.9420                   (X_U2.12)   14.9420                       

(X_U2.13)    6.8592                   (X_U2.14)    6.8593                       

(X_U2.53)   13.0000                   (X_U2.54)  -13.0000                       

(X_U2.90)    -.1251                   (X_U2.91)   22.0000                       

(X_U2.92)  -22.0000                   (X_U2.99)    0.0000                       

(X_U3.10)    7.0788                   (X_U3.11)   14.9420                       

(X_U3.12)   14.9420                   (X_U3.13)    7.1097                       

(X_U3.14)    7.1097                   (X_U3.53)   13.0000                       

(X_U3.54)  -13.0000                   (X_U3.90)     .1255                       

(X_U3.91)   22.0000                   (X_U3.92)  -22.0000                       

(X_U3.99)    0.0000                   (X_U4.10)   10.4070                       

(X_U4.11)   14.9410                   (X_U4.12)   14.9410                       

(X_U4.13)   10.4380                   (X_U4.14)   10.4380                       

(X_U4.53)   13.0000                   (X_U4.54)  -13.0000                       

(X_U4.90)    1.6645                   (X_U4.91)   22.0000                       

(X_U4.92)  -22.0000                   (X_U4.99)    0.0000                       

(X_U5.10)    7.6678                   (X_U5.11)   14.9420                       

(X_U5.12)   14.9420                   (X_U5.13)    7.6988                       

(X_U5.14)    7.6988                   (X_U5.53)   13.0000                       

(X_U5.54)  -13.0000                   (X_U5.90)   -2.3260                       

(X_U5.91)   22.0000                   (X_U5.92)  -22.0000                       

(X_U5.99)    0.0000                   (X_U6.10)    9.9934                       

(X_U6.11)   14.9420                   (X_U6.12)   14.9410                       

(X_U6.13)   10.0250                   (X_U6.14)   10.0250                       

(X_U6.53)   13.0000                   (X_U6.54)  -13.0000                       

(X_U6.90)    2.3263                   (X_U6.91)   22.0000                       

(X_U6.92)  -22.0000                   (X_U6.99)    0.0000                   




    VOLTAGE SOURCE CURRENTS
    NAME         CURRENT

    V_V1        -1.105E+00
    V_V2         2.250E-02
    V_V3        -1.864E-02
    X_U2.vb     -4.752E-07
    X_U2.vc      5.430E-12
    X_U2.ve      2.235E-11
    X_U2.vlim   -1.251E-04
    X_U2.vlp    -2.213E-11
    X_U2.vln    -2.188E-11
    X_U3.vb     -5.292E-07
    X_U3.vc      4.590E-12
    X_U3.ve      2.319E-11
    X_U3.vlim    1.255E-04
    X_U3.vlp    -2.188E-11
    X_U3.vln    -2.213E-11
    X_U4.vb     -7.086E-07
    X_U4.vc      1.850E-12
    X_U4.ve      2.593E-11
    X_U4.vlim    1.664E-03
    X_U4.vlp    -2.034E-11
    X_U4.vln    -2.367E-11
    X_U5.vb      1.066E-07
    X_U5.vc      1.452E-11
    X_U5.ve      1.326E-11
    X_U5.vlim   -2.326E-03
    X_U5.vlp    -2.433E-11
    X_U5.vln    -1.968E-11
    X_U6.vb     -6.857E-07
    X_U6.vc      2.264E-12
    X_U6.ve      2.552E-11
    X_U6.vlim    2.326E-03
    X_U6.vlp    -1.967E-11
    X_U6.vln    -2.433E-11

    TOTAL POWER DISSIPATION   1.72E+01  WATTS


**** 07/04/23 11:38:18 **** PSpice 22.1.0 (6 October 2022) **** ID# 0 ********

 ** Profile: "SCHEMATIC1-simulare_oglinda"  [ c:\users\maria\onedrive - technical university of cluj-napoca\desktop\proiect_cad_uwu\n


 ****     INITIAL TRANSIENT SOLUTION       TEMPERATURE =   27.000 DEG C

 ****     CURRENT STEP                     PARAM R =   21.0000E+03


******************************************************************************



 NODE   VOLTAGE     NODE   VOLTAGE     NODE   VOLTAGE     NODE   VOLTAGE


( +VCC)   15.0000  ( -VCC)  -15.0000  ( OUT2)    4.6777  ( VREF)    7.5713      

(VREF2)   10.7370  (N14397)   14.5000 (N14486)   11.6510 (N15621)   11.6510     

(N15935)    7.5714 (N16344)    8.1730 (N16580)    8.1728 (N16671)    9.5871     

(N18090)   10.7370 (N18284)    9.5872 (N18859)   15.0000 (N18863)   11.7420     

(N20012)     .7749 (N20016)     .0128 (N20331)    3.5300 (X_U2.6)    -.0474     

(X_U2.7)    7.5562 (X_U2.8)    7.5562 (X_U2.9)    0.0000 (X_U3.6)    -.0604     

(X_U3.7)    9.6022 (X_U3.8)    9.6022 (X_U3.9)    0.0000 (X_U4.6)    -.0740     

(X_U4.7)   11.7380 (X_U4.8)   11.7380 (X_U4.9)    0.0000 (X_U5.6)    -.0320     

(X_U5.7)    4.9580 (X_U5.8)    4.9580 (X_U5.9)    0.0000 (X_U6.6)    -.0680     

(X_U6.7)   10.7950 (X_U6.8)   10.7950 (X_U6.9)    0.0000 (N198520)    2.8763    

(N204421)    3.5524                   (X_U2.10)    6.8284                       

(X_U2.11)   14.9420                   (X_U2.12)   14.9420                       

(X_U2.13)    6.8592                   (X_U2.14)    6.8593                       

(X_U2.53)   13.0000                   (X_U2.54)  -13.0000                       

(X_U2.90)    -.3007                   (X_U2.91)   22.0000                       

(X_U2.92)  -22.0000                   (X_U2.99)    0.0000                       

(X_U3.10)    7.4298                   (X_U3.11)   14.9420                       

(X_U3.12)   14.9420                   (X_U3.13)    7.4607                       

(X_U3.14)    7.4608                   (X_U3.53)   13.0000                       

(X_U3.54)  -13.0000                   (X_U3.90)     .3010                       

(X_U3.91)   22.0000                   (X_U3.92)  -22.0000                       

(X_U3.99)    0.0000                   (X_U4.10)   10.9070                       

(X_U4.11)   14.9410                   (X_U4.12)   14.9410                       

(X_U4.13)   10.9390                   (X_U4.14)   10.9390                       

(X_U4.53)   13.0000                   (X_U4.54)  -13.0000                       

(X_U4.90)    1.7392                   (X_U4.91)   22.0000                       

(X_U4.92)  -22.0000                   (X_U4.99)    0.0000                       

(X_U5.10)    8.8437                   (X_U5.11)   14.9420                       

(X_U5.12)   14.9420                   (X_U5.13)    8.8748                       

(X_U5.14)    8.8749                   (X_U5.53)   13.0000                       

(X_U5.54)  -13.0000                   (X_U5.90)    5.6078                       

(X_U5.91)   22.0000                   (X_U5.92)  -22.0000                       

(X_U5.99)    0.0000                   (X_U6.10)    9.9934                       

(X_U6.11)   14.9420                   (X_U6.12)   14.9410                       

(X_U6.13)   10.0250                   (X_U6.14)   10.0250                       

(X_U6.53)   13.0000                   (X_U6.54)  -13.0000                       

(X_U6.90)    1.1500                   (X_U6.91)   22.0000                       

(X_U6.92)  -22.0000                   (X_U6.99)    0.0000                   




    VOLTAGE SOURCE CURRENTS
    NAME         CURRENT

    V_V1        -1.109E+00
    V_V2         2.250E-02
    V_V3        -1.864E-02
    X_U2.vb     -4.744E-07
    X_U2.vc      5.430E-12
    X_U2.ve      2.235E-11
    X_U2.vlim   -3.007E-04
    X_U2.vlp    -2.230E-11
    X_U2.vln    -2.170E-11
    X_U3.vb     -6.039E-07
    X_U3.vc      3.414E-12
    X_U3.ve      2.437E-11
    X_U3.vlim    3.010E-04
    X_U3.vlp    -2.170E-11
    X_U3.vln    -2.230E-11
    X_U4.vb     -7.404E-07
    X_U4.vc      1.350E-12
    X_U4.ve      2.643E-11
    X_U4.vlim    1.739E-03
    X_U4.vlp    -2.026E-11
    X_U4.vln    -2.374E-11
    X_U5.vb     -3.204E-07
    X_U5.vc      8.323E-12
    X_U5.ve      1.946E-11
    X_U5.vlim    5.608E-03
    X_U5.vlp    -1.639E-11
    X_U5.vln    -2.761E-11
    X_U6.vb     -6.802E-07
    X_U6.vc      2.264E-12
    X_U6.ve      2.552E-11
    X_U6.vlim    1.150E-03
    X_U6.vlp    -2.085E-11
    X_U6.vln    -2.315E-11

    TOTAL POWER DISSIPATION   1.73E+01  WATTS


**** 07/04/23 11:38:18 **** PSpice 22.1.0 (6 October 2022) **** ID# 0 ********

 ** Profile: "SCHEMATIC1-simulare_oglinda"  [ c:\users\maria\onedrive - technical university of cluj-napoca\desktop\proiect_cad_uwu\n


 ****     INITIAL TRANSIENT SOLUTION       TEMPERATURE =   27.000 DEG C

 ****     CURRENT STEP                     PARAM R =   22.0000E+03


******************************************************************************



 NODE   VOLTAGE     NODE   VOLTAGE     NODE   VOLTAGE     NODE   VOLTAGE


( +VCC)   15.0000  ( -VCC)  -15.0000  ( OUT2)   10.8160  ( VREF)    7.5713      

(VREF2)   10.7370  (N14397)   14.5000 (N14486)   12.1470 (N15621)   12.1470     

(N15935)    7.5714 (N16344)    8.5207 (N16580)    8.5205 (N16671)   10.7520     

(N18090)   10.7370 (N18284)   10.7520 (N18859)   15.0000 (N18863)   11.7420     

(N20012)     .8579 (N20016)     .0109 (N20331)    5.9175 (X_U2.6)    -.0474     

(X_U2.7)    7.5475 (X_U2.8)    7.5475 (X_U2.9)    0.0000 (X_U3.6)    -.0678     

(X_U3.7)   10.7760 (X_U3.8)   10.7760 (X_U3.9)    0.0000 (X_U4.6)    -.0772     

(X_U4.7)   12.2370 (X_U4.8)   12.2370 (X_U4.9)    0.0000 (X_U5.6)    -.0784     

(X_U5.7)   11.9240 (X_U5.8)   11.9240 (X_U5.9)    0.0000 (X_U6.6)    -.0675     

(X_U6.7)   10.7360 (X_U6.8)   10.7360 (X_U6.9)    0.0000 (N198520)    3.1268    

(N204421)    3.5524                   (X_U2.10)    6.8284                       

(X_U2.11)   14.9420                   (X_U2.12)   14.9420                       

(X_U2.13)    6.8592                   (X_U2.14)    6.8593                       

(X_U2.53)   13.0000                   (X_U2.54)  -13.0000                       

(X_U2.90)    -.4745                   (X_U2.91)   22.0000                       

(X_U2.92)  -22.0000                   (X_U2.99)    0.0000                       

(X_U3.10)    7.7774                   (X_U3.11)   14.9420                       

(X_U3.12)   14.9420                   (X_U3.13)    7.8084                       

(X_U3.14)    7.8085                   (X_U3.53)   13.0000                       

(X_U3.54)  -13.0000                   (X_U3.90)     .4749                       

(X_U3.91)   22.0000                   (X_U3.92)  -22.0000                       

(X_U3.99)    0.0000                   (X_U4.10)   11.4030                       

(X_U4.11)   14.9410                   (X_U4.12)   14.9410                       

(X_U4.13)   11.4340                   (X_U4.14)   11.4340                       

(X_U4.53)   13.0000                   (X_U4.54)  -13.0000                       

(X_U4.90)    1.8132                   (X_U4.91)   22.0000                       

(X_U4.92)  -22.0000                   (X_U4.99)    0.0000                       

(X_U5.10)   10.0080                   (X_U5.11)   14.9420                       

(X_U5.12)   14.9410                   (X_U5.13)   10.0400                       

(X_U5.14)   10.0400                   (X_U5.53)   13.0000                       

(X_U5.54)  -13.0000                   (X_U5.90)   22.1600                       

(X_U5.91)   22.0000                   (X_U5.92)  -22.0000                       

(X_U5.99)    0.0000                   (X_U6.10)    9.9934                       

(X_U6.11)   14.9420                   (X_U6.12)   14.9410                       

(X_U6.13)   10.0250                   (X_U6.14)   10.0250                       

(X_U6.53)   13.0000                   (X_U6.54)  -13.0000                       

(X_U6.90)    -.0148                   (X_U6.91)   22.0000                       

(X_U6.92)  -22.0000                   (X_U6.99)    0.0000                   




    VOLTAGE SOURCE CURRENTS
    NAME         CURRENT

    V_V1        -1.109E+00
    V_V2         2.250E-02
    V_V3        -1.864E-02
    X_U2.vb     -4.736E-07
    X_U2.vc      5.430E-12
    X_U2.ve      2.235E-11
    X_U2.vlim   -4.745E-04
    X_U2.vlp    -2.248E-11
    X_U2.vln    -2.153E-11
    X_U3.vb     -6.779E-07
    X_U3.vc      2.249E-12
    X_U3.ve      2.553E-11
    X_U3.vlim    4.749E-04
    X_U3.vlp    -2.153E-11
    X_U3.vln    -2.248E-11
    X_U4.vb     -7.719E-07
    X_U4.vc      8.541E-13
    X_U4.ve      2.693E-11
    X_U4.vlim    1.813E-03
    X_U4.vlp    -2.019E-11
    X_U4.vln    -2.382E-11
    X_U5.vb     -7.842E-07
    X_U5.vc      2.184E-12
    X_U5.ve      2.560E-11
    X_U5.vlim    2.216E-02
    X_U5.vlp     5.490E-13
    X_U5.vln    -4.416E-11
    X_U6.vb     -6.747E-07
    X_U6.vc      2.264E-12
    X_U6.ve      2.552E-11
    X_U6.vlim   -1.482E-05
    X_U6.vlp    -2.202E-11
    X_U6.vln    -2.199E-11

    TOTAL POWER DISSIPATION   1.73E+01  WATTS


**** 07/04/23 11:38:18 **** PSpice 22.1.0 (6 October 2022) **** ID# 0 ********

 ** Profile: "SCHEMATIC1-simulare_oglinda"  [ c:\users\maria\onedrive - technical university of cluj-napoca\desktop\proiect_cad_uwu\n


 ****     INITIAL TRANSIENT SOLUTION       TEMPERATURE =   27.000 DEG C

 ****     CURRENT STEP                     PARAM R =   23.0000E+03


******************************************************************************



 NODE   VOLTAGE     NODE   VOLTAGE     NODE   VOLTAGE     NODE   VOLTAGE


( +VCC)   15.0000  ( -VCC)  -15.0000  ( OUT2)  -13.7950  ( VREF)    7.5713      

(VREF2)   10.7370  (N14397)   14.5000 (N14486)   12.6380 (N15621)   12.6380     

(N15935)    7.5714 (N16344)    8.8650 (N16580)    8.8649 (N16671)   11.9060     

(N18090)   10.7370 (N18284)    6.0820 (N18859)   15.0000 (N18863)   11.7420     

(N20012)  -13.7950 (N20016)   15.0000 (N20331)  -13.7950 (X_U2.6)    -.0473     

(X_U2.7)    7.5389 (X_U2.8)    7.5389 (X_U2.9)    0.0000 (X_U3.6)    -.0751     

(X_U3.7)   11.9380 (X_U3.8)   11.9380 (X_U3.9)    0.0000 (X_U4.6)    -.0803     

(X_U4.7)   12.7320 (X_U4.8)   12.7320 (X_U4.9)    0.0000 (X_U5.6)  147.9200     

(X_U5.7)  -14.9320 (X_U5.8)  -14.9320 (X_U5.9)    0.0000 (X_U6.6)    -.0697     

(X_U6.7)   10.9700 (X_U6.8)   10.9700 (X_U6.9)    0.0000 (N198520)  -13.7950    

(N204421)    3.5524                   (X_U2.10)    6.8284                       

(X_U2.11)   14.9420                   (X_U2.12)   14.9420                       

(X_U2.13)    6.8592                   (X_U2.14)    6.8593                       

(X_U2.53)   13.0000                   (X_U2.54)  -13.0000                       

(X_U2.90)    -.6467                   (X_U2.91)   22.0000                       

(X_U2.92)  -22.0000                   (X_U2.99)    0.0000                       

(X_U3.10)    8.1217                   (X_U3.11)   14.9420                       

(X_U3.12)   14.9420                   (X_U3.13)    8.1527                       

(X_U3.14)    8.1528                   (X_U3.53)   13.0000                       

(X_U3.54)  -13.0000                   (X_U3.90)     .6472                       

(X_U3.91)   22.0000                   (X_U3.92)  -22.0000                       

(X_U3.99)    0.0000                   (X_U4.10)   11.8930                       

(X_U4.11)   14.9410                   (X_U4.12)   14.9410                       

(X_U4.13)   11.9250                   (X_U4.14)   11.9250                       

(X_U4.53)   13.0000                   (X_U4.54)  -13.0000                       

(X_U4.90)    1.8864                   (X_U4.91)   22.0000                       

(X_U4.92)  -22.0000                   (X_U4.99)    0.0000                       

(X_U5.10)   11.1120                   (X_U5.11)   14.8820                       

(X_U5.12)   15.0000                   (X_U5.13)   11.1750                       

(X_U5.14)   11.1120                   (X_U5.53)   13.0000                       

(X_U5.54)  -13.0000                   (X_U5.90)  -22.7330                       

(X_U5.91)   22.0000                   (X_U5.92)  -22.0000                       

(X_U5.99)    0.0000                   (X_U6.10)    9.9934                       

(X_U6.11)   14.9420                   (X_U6.12)   14.9410                       

(X_U6.13)   10.0250                   (X_U6.14)   10.0250                       

(X_U6.53)   13.0000                   (X_U6.54)  -13.0000                       

(X_U6.90)    4.6552                   (X_U6.91)   22.0000                       

(X_U6.92)  -22.0000                   (X_U6.99)    0.0000                   




    VOLTAGE SOURCE CURRENTS
    NAME         CURRENT

    V_V1        -1.105E+00
    V_V2         4.421E-03
    V_V3        -1.864E-02
    X_U2.vb     -4.728E-07
    X_U2.vc      5.430E-12
    X_U2.ve      2.235E-11
    X_U2.vlim   -6.467E-04
    X_U2.vlp    -2.265E-11
    X_U2.vln    -2.136E-11
    X_U3.vb     -7.512E-07
    X_U3.vc      1.095E-12
    X_U3.ve      2.669E-11
    X_U3.vlim    6.472E-04
    X_U3.vlp    -2.135E-11
    X_U3.vln    -2.265E-11
    X_U4.vb     -8.031E-07
    X_U4.vc      3.632E-13
    X_U4.ve      2.742E-11
    X_U4.vlim    1.886E-03
    X_U4.vlp    -2.011E-11
    X_U4.vln    -2.389E-11
    X_U5.vb      1.479E-03
    X_U5.vc      2.680E-11
    X_U5.ve     -1.808E-02
    X_U5.vlim   -2.273E-02
    X_U5.vlp    -4.473E-11
    X_U5.vln     1.538E-03
    X_U6.vb     -6.967E-07
    X_U6.vc      2.264E-12
    X_U6.ve      2.552E-11
    X_U6.vlim    4.655E-03
    X_U6.vlp    -1.735E-11
    X_U6.vln    -2.666E-11

    TOTAL POWER DISSIPATION   1.69E+01  WATTS


**** 07/04/23 11:38:18 **** PSpice 22.1.0 (6 October 2022) **** ID# 0 ********

 ** Profile: "SCHEMATIC1-simulare_oglinda"  [ c:\users\maria\onedrive - technical university of cluj-napoca\desktop\proiect_cad_uwu\n


 ****     INITIAL TRANSIENT SOLUTION       TEMPERATURE =   27.000 DEG C

 ****     CURRENT STEP                     PARAM R =   24.0000E+03


******************************************************************************



 NODE   VOLTAGE     NODE   VOLTAGE     NODE   VOLTAGE     NODE   VOLTAGE


( +VCC)   15.0000  ( -VCC)  -15.0000  ( OUT2)  -13.7950  ( VREF)    7.5713      

(VREF2)   10.7370  (N14397)   14.5000 (N14486)   13.1240 (N15621)   13.1240     

(N15935)    7.5714 (N16344)    9.2061 (N16580)    9.2059 (N16671)   13.0480     

(N18090)   10.7370 (N18284)    6.0820 (N18859)   15.0000 (N18863)   11.7420     

(N20012)  -13.7950 (N20016)   15.0000 (N20331)  -13.7950 (X_U2.6)    -.0472     

(X_U2.7)    7.5304 (X_U2.8)    7.5304 (X_U2.9)    0.0000 (X_U3.6)    -.0824     

(X_U3.7)   13.0890 (X_U3.8)   13.0890 (X_U3.9)    0.0000 (X_U4.6)    -.0834     

(X_U4.7)   13.2220 (X_U4.8)   13.2220 (X_U4.9)    0.0000 (X_U5.6)  148.7400     

(X_U5.7)  -14.9320 (X_U5.8)  -14.9320 (X_U5.9)    0.0000 (X_U6.6)    -.0697     

(X_U6.7)   10.9700 (X_U6.8)   10.9700 (X_U6.9)    0.0000 (N198520)  -13.7950    

(N204421)    3.5524                   (X_U2.10)    6.8284                       

(X_U2.11)   14.9420                   (X_U2.12)   14.9420                       

(X_U2.13)    6.8592                   (X_U2.14)    6.8593                       

(X_U2.53)   13.0000                   (X_U2.54)  -13.0000                       

(X_U2.90)    -.8172                   (X_U2.91)   22.0000                       

(X_U2.92)  -22.0000                   (X_U2.99)    0.0000                       

(X_U3.10)    8.4627                   (X_U3.11)   14.9420                       

(X_U3.12)   14.9420                   (X_U3.13)    8.4937                       

(X_U3.14)    8.4938                   (X_U3.53)   13.0000                       

(X_U3.54)  -13.0000                   (X_U3.90)     .8177                       

(X_U3.91)   22.0000                   (X_U3.92)  -22.0000                       

(X_U3.99)    0.0000                   (X_U4.10)   12.3790                       

(X_U4.11)   14.9410                   (X_U4.12)   14.9410                       

(X_U4.13)   12.4110                   (X_U4.14)   12.4110                       

(X_U4.53)   13.0000                   (X_U4.54)  -13.0000                       

(X_U4.90)    1.9590                   (X_U4.91)   22.0000                       

(X_U4.92)  -22.0000                   (X_U4.99)    0.0000                       

(X_U5.10)   12.2540                   (X_U5.11)   14.8820                       

(X_U5.12)   15.0000                   (X_U5.13)   12.3170                       

(X_U5.14)   12.2540                   (X_U5.53)   13.0000                       

(X_U5.54)  -13.0000                   (X_U5.90)  -22.7330                       

(X_U5.91)   22.0000                   (X_U5.92)  -22.0000                       

(X_U5.99)    0.0000                   (X_U6.10)    9.9934                       

(X_U6.11)   14.9420                   (X_U6.12)   14.9410                       

(X_U6.13)   10.0250                   (X_U6.14)   10.0250                       

(X_U6.53)   13.0000                   (X_U6.54)  -13.0000                       

(X_U6.90)    4.6552                   (X_U6.91)   22.0000                       

(X_U6.92)  -22.0000                   (X_U6.99)    0.0000                   




    VOLTAGE SOURCE CURRENTS
    NAME         CURRENT

    V_V1        -1.105E+00
    V_V2         4.421E-03
    V_V3        -1.864E-02
    X_U2.vb     -4.720E-07
    X_U2.vc      5.430E-12
    X_U2.ve      2.235E-11
    X_U2.vlim   -8.172E-04
    X_U2.vlp    -2.282E-11
    X_U2.vln    -2.119E-11
    X_U3.vb     -8.238E-07
    X_U3.vc     -5.234E-14
    X_U3.ve      2.783E-11
    X_U3.vlim    8.177E-04
    X_U3.vlp    -2.118E-11
    X_U3.vln    -2.282E-11
    X_U4.vb     -8.340E-07
    X_U4.vc     -2.190E-13
    X_U4.ve      2.790E-11
    X_U4.vlim    1.959E-03
    X_U4.vlp    -2.004E-11
    X_U4.vln    -2.396E-11
    X_U5.vb      1.487E-03
    X_U5.vc      2.680E-11
    X_U5.ve     -1.808E-02
    X_U5.vlim   -2.273E-02
    X_U5.vlp    -4.473E-11
    X_U5.vln     1.547E-03
    X_U6.vb     -6.967E-07
    X_U6.vc      2.264E-12
    X_U6.ve      2.552E-11
    X_U6.vlim    4.655E-03
    X_U6.vlp    -1.735E-11
    X_U6.vln    -2.666E-11

    TOTAL POWER DISSIPATION   1.69E+01  WATTS



          JOB CONCLUDED

**** 07/04/23 11:38:18 **** PSpice 22.1.0 (6 October 2022) **** ID# 0 ********

 ** Profile: "SCHEMATIC1-simulare_oglinda"  [ c:\users\maria\onedrive - technical university of cluj-napoca\desktop\proiect_cad_uwu\n


 ****     JOB STATISTICS SUMMARY

 ****     CURRENT STEP                     PARAM R =   24.0000E+03


******************************************************************************



  License check-out time            =        2.69
  Total job time (using Solver 1)   =        2.17
