
**** 07/03/23 18:54:54 **** PSpice 22.1.0 (6 October 2022) **** ID# 0 ********

 ** Profile: "SCHEMATIC1-sim_MontCarl"  [ C:\Users\maria\OneDrive - Technical University of Cluj-Napoca\Desktop\PROIECT_CAD_UwU\Nasca


 ****     CIRCUIT DESCRIPTION


******************************************************************************




** Creating circuit file "sim_MontCarl.cir" 
** WARNING: THIS AUTOMATICALLY GENERATED FILE MAY BE OVERWRITTEN BY SUBSEQUENT SIMULATIONS

*Libraries: 
* Profile Libraries :
* Local Libraries :
* From [PSPICE NETLIST] section of C:\SPB_Data\cdssetup\OrCAD_PSpice\22.1.0\PSpice.ini file:
.lib "C:\Users\maria\OneDrive - Technical University of Cluj-Napoca\Desktop\PROIECT_CAD_UwU\NascaMarianProiectCAD-PSpiceFiles\SCHEM"
+ "ATIC1\DiodaAlbastra.lib" 
.lib "nom.lib" 

*Analysis directives: 
.TRAN  0 10ms 0 
.MC 20 TRAN V([OUT]) YMAX OUTPUT ALL SEED=400 
.OPTIONS ADVCONV
.PROBE64 V(alias(*)) I(alias(*)) W(alias(*)) D(alias(*)) NOISE(alias(*)) 
.INC "..\SCHEMATIC1.net" 



**** INCLUDING SCHEMATIC1.net ****
* source NASCAMARIANPROIECTCAD
.EXTERNAL OUTPUT +VCC
.EXTERNAL OUTPUT -VCC
Q_Q1         N14397 N14397 +VCC Q2SA562
Q_Q2         N14486 N14397 +VCC Q2SA562
R_RezistentaSenzor         0 N14486 R_RezistentaSenzor {r} TC=0,0 
.model        R_RezistentaSenzor RES R=1 DEV=0.5% TC1=0 TC2=0
V_V1         +VCC 0 15Vdc
V_V2         -VCC 0 -15Vdc
X_U2         N15935 VREF +VCC -VCC VREF LM118
R_R6         +VCC N15935 R_R6 1.04k TC=0,0 
.model        R_R6 RES R=1 DEV=0.5% TC1=0 TC2=0
R_R7         0 N15935 R_R7 1.06k TC=0,0 
.model        R_R7 RES R=1 DEV=0.5% TC1=0 TC2=0
X_U3         N16344 N16580 +VCC -VCC OUT LM118
R_R4         N15621 N16344 R_R4 2k TC=0,0 
.model        R_R4 RES R=1 DEV=0.5% TC1=0 TC2=0
R_R5         0 N16344  4.7k TC=0,0 
R_R3         N16580 OUT R_R3 4.7k TC=0,0 
.model        R_R3 RES R=1 DEV=0.5% TC1=0 TC2=0
R_R2         VREF N16580 R_R2 2k TC=0,0 
.model        R_R2 RES R=1 DEV=0.5% TC1=0 TC2=0
X_U4         N14486 N15621 +VCC -VCC N15621 LM118
X_U5         N18284 OUT +VCC -VCC OUT2 LM118
R_R11         0 N18090 R_R11 10 TC=0,0 
.model        R_R11 RES R=1 DEV=0.5% TC1=0 TC2=0
R_R10         +VCC N18090 R_R10 3.97 TC=0,0 
.model        R_R10 RES R=1 DEV=0.5% TC1=0 TC2=0
X_U6         N18090 VREF2 +VCC -VCC VREF2 LM118
R_R8         VREF2 N18284 R_R8 1k TC=0,0 
.model        R_R8 RES R=1 DEV=0.5% TC1=0 TC2=0
R_R9         N18284 OUT2 R_R9 4.27k TC=0,0 
.model        R_R9 RES R=1 DEV=0.5% TC1=0 TC2=0
V_V3         N18859 0 15V
D_D1         N18859 N18863 DiodaAlbastra 
R_RdiodaTest         0 N18863  630 TC=0,0 
R_R12         OUT2 N20331 R_R12 402 TC=0,0 
.model        R_R12 RES R=1 DEV=0.5% TC1=0 TC2=0
D_D2         N198520 0 DiodaAlbastra 
Q_Q3         N20016 N20012 0 Q2N1566
R_RLimitare         OUT2 N20012 R_RLimitare 1k TC=0,0 
.model        R_RLimitare RES R=1 DEV=0.5% TC1=0 TC2=0
R_R14         N20016 +VCC R_R14 3.4k TC=0,0 
.model        R_R14 RES R=1 DEV=0.5% TC1=0 TC2=0
R_R13         N20331 N198520 R_R13 229 TC=0,0 
.model        R_R13 RES R=1 DEV=0.5% TC1=0 TC2=0
R_R0         N204421 N14397 R_R0 20k TC=0,0 
.model        R_R0 RES R=1 DEV=0.5% TC1=0 TC2=0
R_R1         0 N204421 R_R1 6.49k TC=0,0 
.model        R_R1 RES R=1 DEV=0.5% TC1=0 TC2=0
.PARAM  r=14k

**** RESUMING sim_MontCarl.cir ****
.END

**** 07/03/23 18:54:54 **** PSpice 22.1.0 (6 October 2022) **** ID# 0 ********

 ** Profile: "SCHEMATIC1-sim_MontCarl"  [ C:\Users\maria\OneDrive - Technical University of Cluj-Napoca\Desktop\PROIECT_CAD_UwU\Nasca


 ****     Diode MODEL PARAMETERS


******************************************************************************




               DiodaAlbastra   X_U2.dx         X_U2.dy         X_U3.dx         
          IS   47.006000E-21  800.000000E-18  800.000000E-18  800.000000E-18 
           N    2.8335                                                       
          RS   15.45            1               1.000000E-03    1            
         CJO                                   10.000000E-12                 


               X_U3.dy         X_U4.dx         X_U4.dy         X_U5.dx         
          IS  800.000000E-18  800.000000E-18  800.000000E-18  800.000000E-18 
          RS    1.000000E-03    1               1.000000E-03    1            
         CJO   10.000000E-12                   10.000000E-12                 


               X_U5.dy         X_U6.dx         X_U6.dy         
          IS  800.000000E-18  800.000000E-18  800.000000E-18 
          RS    1.000000E-03    1               1.000000E-03 
         CJO   10.000000E-12                   10.000000E-12 


**** 07/03/23 18:54:54 **** PSpice 22.1.0 (6 October 2022) **** ID# 0 ********

 ** Profile: "SCHEMATIC1-sim_MontCarl"  [ C:\Users\maria\OneDrive - Technical University of Cluj-Napoca\Desktop\PROIECT_CAD_UwU\Nasca


 ****     BJT MODEL PARAMETERS


******************************************************************************




               Q2SA562         Q2N1566         X_U2.qx         X_U3.qx         
               PNP             NPN             NPN             NPN             
       LEVEL    1               1               1               1            
          IS    2.148000E-12   14.340000E-15  800.000000E-18  800.000000E-18 
          BF  162.9           173.4             5.833000E+03    5.833000E+03 
          NF    1               1               1               1            
         VAF  100              74.03                                         
         IKF     .8773           .2689                                       
         ISE    5.013000E-12   14.340000E-15                                 
          NE    1.655           1.272                                        
          BR   10.18            6.458           1               1            
          NR    1               1               1               1            
         VAR  100                                                            
         IKR    1.838                                                        
         ISC   28.010000E-12                                                 
          NC    1.288                                                        
          NK     .5629                                                       
         ISS    0               0               0               0            
          RB                   10                                            
          RE    0               0               0               0            
          RC     .4968          1               0               0            
         CJE    5.000000E-12   22.010000E-12    0               0            
         VJE     .75             .75             .75             .75         
         MJE     .3333           .377                                        
         CJC   27.040000E-12    9.393000E-12    0               0            
         VJC     .75             .75             .75             .75         
         MJC     .3333           .3416           .33             .33         
        XCJC    1               1               1               1            
         CJS    0               0               0               0            
         VJS     .75             .75             .75             .75         
          TF  767.900000E-12  409.700000E-12                                 
         XTF                    3                                            
         VTF   10               1.7                                          
         ITF    1                .6                                          
          TR   10.000000E-09   48.390000E-09                                 
         XTB    1.5             1.5                                          
          KF    0               0               0               0            
          AF    1               1               1               1            
          CN    2.2             2.42            2.42            2.42         
           D     .52             .87             .87             .87         


               X_U4.qx         X_U5.qx         X_U6.qx         
               NPN             NPN             NPN             
       LEVEL    1               1               1            
          IS  800.000000E-18  800.000000E-18  800.000000E-18 
          BF    5.833000E+03    5.833000E+03    5.833000E+03 
          NF    1               1               1            
          BR    1               1               1            
          NR    1               1               1            
         ISS    0               0               0            
          RE    0               0               0            
          RC    0               0               0            
         CJE    0               0               0            
         VJE     .75             .75             .75         
         CJC    0               0               0            
         VJC     .75             .75             .75         
         MJC     .33             .33             .33         
        XCJC    1               1               1            
         CJS    0               0               0            
         VJS     .75             .75             .75         
          KF    0               0               0            
          AF    1               1               1            
          CN    2.42            2.42            2.42         
           D     .87             .87             .87         


**** 07/03/23 18:54:54 **** PSpice 22.1.0 (6 October 2022) **** ID# 0 ********

 ** Profile: "SCHEMATIC1-sim_MontCarl"  [ C:\Users\maria\OneDrive - Technical University of Cluj-Napoca\Desktop\PROIECT_CAD_UwU\Nasca


 ****     Resistor MODEL PARAMETERS


******************************************************************************




               R_RezistentaSenzor              R_R6            R_R7            
           R    1                               1               1            


               R_R4            R_R3            R_R2            R_R11           
           R    1               1               1               1            


               R_R10           R_R8            R_R9            R_R12           
           R    1               1               1               1            


               R_RLimitare     R_R14           R_R13           R_R0            
           R    1               1               1               1            


               R_R1            
           R    1            


**** 07/03/23 18:54:54 **** PSpice 22.1.0 (6 October 2022) **** ID# 0 ********

 ** Profile: "SCHEMATIC1-sim_MontCarl"  [ C:\Users\maria\OneDrive - Technical University of Cluj-Napoca\Desktop\PROIECT_CAD_UwU\Nasca


 ****     INITIAL TRANSIENT SOLUTION       TEMPERATURE =   27.000 DEG C

                      MONTE CARLO NOMINAL

******************************************************************************



 NODE   VOLTAGE     NODE   VOLTAGE     NODE   VOLTAGE     NODE   VOLTAGE


(  OUT)    1.1047  ( +VCC)   15.0000  ( -VCC)  -15.0000  ( OUT2)   11.0280      

( VREF)    7.5713  (VREF2)   10.7370  (N14397)   14.5000 (N14486)    8.0415     

(N15621)    8.0414 (N15935)    7.5714 (N16344)    5.6408 (N16580)    5.6408     

(N18090)   10.7370 (N18284)   10.7920 (N18859)   15.0000 (N18863)   11.7420     

(N20012)     .8605 (N20016)     .0109 (N20331)    5.9987 (X_U2.6)    -.0480     

(X_U2.7)    7.6195 (X_U2.8)    7.6195 (X_U2.9)    0.0000 (X_U3.6)    -.0065     

(X_U3.7)    1.0564 (X_U3.8)    1.0564 (X_U3.9)    0.0000 (X_U4.6)    -.0511     

(X_U4.7)    8.1014 (X_U4.8)    8.1014 (X_U4.9)    0.0000 (X_U5.6) -146.8800     

(X_U5.7)   12.1650 (X_U5.8)   12.1650 (X_U5.9)    0.0000 (X_U6.6)    -.0675     

(X_U6.7)   10.7340 (X_U6.8)   10.7340 (X_U6.9)    0.0000 (N198520)    3.1337    

(N204421)    3.5524                   (X_U2.10)    6.8284                       

(X_U2.11)   14.9420                   (X_U2.12)   14.9420                       

(X_U2.13)    6.8592                   (X_U2.14)    6.8593                       

(X_U2.53)   13.0000                   (X_U2.54)  -13.0000                       

(X_U2.90)     .9654                   (X_U2.91)   22.0000                       

(X_U2.92)  -22.0000                   (X_U2.99)    0.0000                       

(X_U3.10)    4.8984                   (X_U3.11)   14.9430                       

(X_U3.12)   14.9430                   (X_U3.13)    4.9290                       

(X_U3.14)    4.9290                   (X_U3.53)   13.0000                       

(X_U3.54)  -13.0000                   (X_U3.90)    -.9651                       

(X_U3.91)   22.0000                   (X_U3.92)  -22.0000                       

(X_U3.99)    0.0000                   (X_U4.10)    7.2984                       

(X_U4.11)   14.9420                   (X_U4.12)   14.9420                       

(X_U4.13)    7.3293                   (X_U4.14)    7.3294                       

(X_U4.53)   13.0000                   (X_U4.54)  -13.0000                       

(X_U4.90)    1.2004                   (X_U4.91)   22.0000                       

(X_U4.92)  -22.0000                   (X_U4.99)    0.0000                       

(X_U5.10)    9.9991                   (X_U5.11)   15.0000                       

(X_U5.12)   14.8830                   (X_U5.13)    9.9991                       

(X_U5.14)   10.0620                   (X_U5.53)   13.0000                       

(X_U5.54)  -13.0000                   (X_U5.90)   22.7330                       

(X_U5.91)   22.0000                   (X_U5.92)  -22.0000                       

(X_U5.99)    0.0000                   (X_U6.10)    9.9934                       

(X_U6.11)   14.9420                   (X_U6.12)   14.9410                       

(X_U6.13)   10.0250                   (X_U6.14)   10.0250                       

(X_U6.53)   13.0000                   (X_U6.54)  -13.0000                       

(X_U6.90)    -.0549                   (X_U6.91)   22.0000                       

(X_U6.92)  -22.0000                   (X_U6.99)    0.0000                   




    VOLTAGE SOURCE CURRENTS
    NAME         CURRENT

    V_V1        -1.109E+00
    V_V2         2.250E-02
    V_V3        -1.864E-02
    X_U2.vb     -4.804E-07
    X_U2.vc      5.430E-12
    X_U2.ve      2.235E-11
    X_U2.vlim    9.654E-04
    X_U2.vlp    -2.104E-11
    X_U2.vln    -2.297E-11
    X_U3.vb     -6.487E-08
    X_U3.vc      1.190E-11
    X_U3.ve      1.588E-11
    X_U3.vlim   -9.651E-04
    X_U3.vlp    -2.297E-11
    X_U3.vln    -2.104E-11
    X_U4.vb     -5.110E-07
    X_U4.vc      4.959E-12
    X_U4.ve      2.282E-11
    X_U4.vlim    1.200E-03
    X_U4.vlp    -2.080E-11
    X_U4.vln    -2.320E-11
    X_U5.vb     -1.469E-03
    X_U5.vc      1.973E-12
    X_U5.ve      2.581E-11
    X_U5.vlim    2.273E-02
    X_U5.vlp     1.557E-03
    X_U5.vln    -4.474E-11
    X_U6.vb     -6.745E-07
    X_U6.vc      2.264E-12
    X_U6.ve      2.552E-11
    X_U6.vlim   -5.486E-05
    X_U6.vlp    -2.206E-11
    X_U6.vln    -2.195E-11

    TOTAL POWER DISSIPATION   1.72E+01  WATTS


**** 07/03/23 18:54:54 **** PSpice 22.1.0 (6 October 2022) **** ID# 0 ********

 ** Profile: "SCHEMATIC1-sim_MontCarl"  [ C:\Users\maria\OneDrive - Technical University of Cluj-Napoca\Desktop\PROIECT_CAD_UwU\Nasca


 ****     INITIAL TRANSIENT SOLUTION       TEMPERATURE =   27.000 DEG C

                      MONTE CARLO PASS 2

******************************************************************************



 NODE   VOLTAGE     NODE   VOLTAGE     NODE   VOLTAGE     NODE   VOLTAGE


(  OUT)    1.1909  ( +VCC)   15.0000  ( -VCC)  -15.0000  ( OUT2)   11.0030      

( VREF)    7.5629  (VREF2)   10.7490  (N14397)   14.5000 (N14486)    8.0576     

(N15621)    8.0575 (N15935)    7.5630 (N16344)    5.6500 (N16580)    5.6499     

(N18090)   10.7500 (N18284)   10.7970 (N18859)   15.0000 (N18863)   11.7420     

(N20012)     .8608 (N20016)     .0109 (N20331)    5.9864 (X_U2.6)    -.0480     

(X_U2.7)    7.6106 (X_U2.8)    7.6106 (X_U2.9)    0.0000 (X_U3.6)    -.0070     

(X_U3.7)    1.1432 (X_U3.8)    1.1432 (X_U3.9)    0.0000 (X_U4.6)    -.0512     

(X_U4.7)    8.1176 (X_U4.8)    8.1176 (X_U4.9)    0.0000 (X_U5.6) -146.8800     

(X_U5.7)   12.1390 (X_U5.8)   12.1390 (X_U5.9)    0.0000 (X_U6.6)    -.0675     

(X_U6.7)   10.7470 (X_U6.8)   10.7470 (X_U6.9)    0.0000 (N198520)    3.1335    

(N204421)    3.5627                   (X_U2.10)    6.8201                       

(X_U2.11)   14.9420                   (X_U2.12)   14.9420                       

(X_U2.13)    6.8509                   (X_U2.14)    6.8509                       

(X_U2.53)   13.0000                   (X_U2.54)  -13.0000                       

(X_U2.90)     .9535                   (X_U2.91)   22.0000                       

(X_U2.92)  -22.0000                   (X_U2.99)    0.0000                       

(X_U3.10)    4.9076                   (X_U3.11)   14.9430                       

(X_U3.12)   14.9430                   (X_U3.13)    4.9381                       

(X_U3.14)    4.9382                   (X_U3.53)   13.0000                       

(X_U3.54)  -13.0000                   (X_U3.90)    -.9533                       

(X_U3.91)   22.0000                   (X_U3.92)  -22.0000                       

(X_U3.99)    0.0000                   (X_U4.10)    7.3145                       

(X_U4.11)   14.9420                   (X_U4.12)   14.9420                       

(X_U4.13)    7.3454                   (X_U4.14)    7.3455                       

(X_U4.53)   13.0000                   (X_U4.54)  -13.0000                       

(X_U4.90)    1.2024                   (X_U4.91)   22.0000                       

(X_U4.92)  -22.0000                   (X_U4.99)    0.0000                       

(X_U5.10)   10.0040                   (X_U5.11)   15.0000                       

(X_U5.12)   14.8830                   (X_U5.13)   10.0040                       

(X_U5.14)   10.0670                   (X_U5.53)   13.0000                       

(X_U5.54)  -13.0000                   (X_U5.90)   22.7330                       

(X_U5.91)   22.0000                   (X_U5.92)  -22.0000                       

(X_U5.99)    0.0000                   (X_U6.10)   10.0060                       

(X_U6.11)   14.9420                   (X_U6.12)   14.9410                       

(X_U6.13)   10.0370                   (X_U6.14)   10.0370                       

(X_U6.53)   13.0000                   (X_U6.54)  -13.0000                       

(X_U6.90)    -.0478                   (X_U6.91)   22.0000                       

(X_U6.92)  -22.0000                   (X_U6.99)    0.0000                   




    VOLTAGE SOURCE CURRENTS
    NAME         CURRENT

    V_V1        -1.106E+00
    V_V2         2.250E-02
    V_V3        -1.864E-02
    X_U2.vb     -4.798E-07
    X_U2.vc      5.438E-12
    X_U2.ve      2.234E-11
    X_U2.vlim    9.535E-04
    X_U2.vlp    -2.105E-11
    X_U2.vln    -2.296E-11
    X_U3.vb     -7.035E-08
    X_U3.vc      1.181E-11
    X_U3.ve      1.597E-11
    X_U3.vlim   -9.533E-04
    X_U3.vlp    -2.295E-11
    X_U3.vln    -2.105E-11
    X_U4.vb     -5.120E-07
    X_U4.vc      4.943E-12
    X_U4.ve      2.284E-11
    X_U4.vlim    1.202E-03
    X_U4.vlp    -2.080E-11
    X_U4.vln    -2.320E-11
    X_U5.vb     -1.469E-03
    X_U5.vc      1.998E-12
    X_U5.ve      2.578E-11
    X_U5.vlim    2.273E-02
    X_U5.vlp     1.557E-03
    X_U5.vln    -4.474E-11
    X_U6.vb     -6.753E-07
    X_U6.vc      2.251E-12
    X_U6.ve      2.553E-11
    X_U6.vlim   -4.779E-05
    X_U6.vlp    -2.205E-11
    X_U6.vln    -2.196E-11

    TOTAL POWER DISSIPATION   1.72E+01  WATTS


**** 07/03/23 18:54:54 **** PSpice 22.1.0 (6 October 2022) **** ID# 0 ********

 ** Profile: "SCHEMATIC1-sim_MontCarl"  [ C:\Users\maria\OneDrive - Technical University of Cluj-Napoca\Desktop\PROIECT_CAD_UwU\Nasca


 ****     INITIAL TRANSIENT SOLUTION       TEMPERATURE =   27.000 DEG C

                      MONTE CARLO PASS 3

******************************************************************************



 NODE   VOLTAGE     NODE   VOLTAGE     NODE   VOLTAGE     NODE   VOLTAGE


(  OUT)     .9184  ( +VCC)   15.0000  ( -VCC)  -15.0000  ( OUT2)   11.0100      

( VREF)    7.5951  (VREF2)   10.7220  (N14397)   14.5000 (N14486)    8.0000     

(N15621)    7.9999 (N15935)    7.5952 (N16344)    5.6040 (N16580)    5.6039     

(N18090)   10.7220 (N18284)   10.7770 (N18859)   15.0000 (N18863)   11.7420     

(N20012)     .8605 (N20016)     .0108 (N20331)    5.9912 (X_U2.6)    -.0482     

(X_U2.7)    7.6451 (X_U2.8)    7.6451 (X_U2.9)    0.0000 (X_U3.6)    -.0053     

(X_U3.7)     .8684 (X_U3.8)     .8684 (X_U3.9)    0.0000 (X_U4.6)    -.0508     

(X_U4.7)    8.0595 (X_U4.8)    8.0595 (X_U4.9)    0.0000 (X_U5.6) -146.8700     

(X_U5.7)   12.1460 (X_U5.8)   12.1460 (X_U5.9)    0.0000 (X_U6.6)    -.0674     

(X_U6.7)   10.7190 (X_U6.8)   10.7190 (X_U6.9)    0.0000 (N198520)    3.1338    

(N204421)    3.5466                   (X_U2.10)    6.8523                       

(X_U2.11)   14.9420                   (X_U2.12)   14.9420                       

(X_U2.13)    6.8831                   (X_U2.14)    6.8831                       

(X_U2.53)   13.0000                   (X_U2.54)  -13.0000                       

(X_U2.90)    1.0003                   (X_U2.91)   22.0000                       

(X_U2.92)  -22.0000                   (X_U2.99)    0.0000                       

(X_U3.10)    4.8616                   (X_U3.11)   14.9430                       

(X_U3.12)   14.9430                   (X_U3.13)    4.8921                       

(X_U3.14)    4.8922                   (X_U3.53)   13.0000                       

(X_U3.54)  -13.0000                   (X_U3.90)   -1.0000                       

(X_U3.91)   22.0000                   (X_U3.92)  -22.0000                       

(X_U3.99)    0.0000                   (X_U4.10)    7.2569                       

(X_U4.11)   14.9420                   (X_U4.12)   14.9420                       

(X_U4.13)    7.2878                   (X_U4.14)    7.2879                       

(X_U4.53)   13.0000                   (X_U4.54)  -13.0000                       

(X_U4.90)    1.1926                   (X_U4.91)   22.0000                       

(X_U4.92)  -22.0000                   (X_U4.99)    0.0000                       

(X_U5.10)    9.9836                   (X_U5.11)   15.0000                       

(X_U5.12)   14.8830                   (X_U5.13)    9.9836                       

(X_U5.14)   10.0460                   (X_U5.53)   13.0000                       

(X_U5.54)  -13.0000                   (X_U5.90)   22.7330                       

(X_U5.91)   22.0000                   (X_U5.92)  -22.0000                       

(X_U5.99)    0.0000                   (X_U6.10)    9.9782                       

(X_U6.11)   14.9420                   (X_U6.12)   14.9410                       

(X_U6.13)   10.0100                   (X_U6.14)   10.0100                       

(X_U6.53)   13.0000                   (X_U6.54)  -13.0000                       

(X_U6.90)    -.0544                   (X_U6.91)   22.0000                       

(X_U6.92)  -22.0000                   (X_U6.99)    0.0000                   




    VOLTAGE SOURCE CURRENTS
    NAME         CURRENT

    V_V1        -1.108E+00
    V_V2         2.250E-02
    V_V3        -1.864E-02
    X_U2.vb     -4.820E-07
    X_U2.vc      5.406E-12
    X_U2.ve      2.238E-11
    X_U2.vlim    1.000E-03
    X_U2.vlp    -2.100E-11
    X_U2.vln    -2.300E-11
    X_U3.vb     -5.300E-08
    X_U3.vc      1.208E-11
    X_U3.ve      1.570E-11
    X_U3.vlim   -1.000E-03
    X_U3.vlp    -2.300E-11
    X_U3.vln    -2.100E-11
    X_U4.vb     -5.084E-07
    X_U4.vc      5.001E-12
    X_U4.ve      2.278E-11
    X_U4.vlim    1.193E-03
    X_U4.vlp    -2.081E-11
    X_U4.vln    -2.319E-11
    X_U5.vb     -1.469E-03
    X_U5.vc      1.991E-12
    X_U5.ve      2.579E-11
    X_U5.vlim    2.273E-02
    X_U5.vlp     1.557E-03
    X_U5.vln    -4.474E-11
    X_U6.vb     -6.736E-07
    X_U6.vc      2.279E-12
    X_U6.ve      2.550E-11
    X_U6.vlim   -5.435E-05
    X_U6.vlp    -2.206E-11
    X_U6.vln    -2.195E-11

    TOTAL POWER DISSIPATION   1.72E+01  WATTS


**** 07/03/23 18:54:54 **** PSpice 22.1.0 (6 October 2022) **** ID# 0 ********

 ** Profile: "SCHEMATIC1-sim_MontCarl"  [ C:\Users\maria\OneDrive - Technical University of Cluj-Napoca\Desktop\PROIECT_CAD_UwU\Nasca


 ****     INITIAL TRANSIENT SOLUTION       TEMPERATURE =   27.000 DEG C

                      MONTE CARLO PASS 4

******************************************************************************



 NODE   VOLTAGE     NODE   VOLTAGE     NODE   VOLTAGE     NODE   VOLTAGE


(  OUT)    1.1255  ( +VCC)   15.0000  ( -VCC)  -15.0000  ( OUT2)   11.0480      

( VREF)    7.5437  (VREF2)   10.7300  (N14397)   14.5000 (N14486)    8.0207     

(N15621)    8.0206 (N15935)    7.5438 (N16344)    5.6185 (N16580)    5.6184     

(N18090)   10.7300 (N18284)   10.7900 (N18859)   15.0000 (N18863)   11.7420     

(N20012)     .8605 (N20016)     .0108 (N20331)    5.9989 (X_U2.6)    -.0479     

(X_U2.7)    7.5917 (X_U2.8)    7.5917 (X_U2.9)    0.0000 (X_U3.6)    -.0066     

(X_U3.7)    1.0775 (X_U3.8)    1.0775 (X_U3.9)    0.0000 (X_U4.6)    -.0510     

(X_U4.7)    8.0804 (X_U4.8)    8.0804 (X_U4.9)    0.0000 (X_U5.6) -146.8800     

(X_U5.7)   12.1850 (X_U5.8)   12.1850 (X_U5.9)    0.0000 (X_U6.6)    -.0674     

(X_U6.7)   10.7270 (X_U6.8)   10.7270 (X_U6.9)    0.0000 (N198520)    3.1336    

(N204421)    3.5369                   (X_U2.10)    6.8009                       

(X_U2.11)   14.9420                   (X_U2.12)   14.9420                       

(X_U2.13)    6.8317                   (X_U2.14)    6.8317                       

(X_U2.53)   13.0000                   (X_U2.54)  -13.0000                       

(X_U2.90)     .9593                   (X_U2.91)   22.0000                       

(X_U2.92)  -22.0000                   (X_U2.99)    0.0000                       

(X_U3.10)    4.8761                   (X_U3.11)   14.9430                       

(X_U3.12)   14.9430                   (X_U3.13)    4.9066                       

(X_U3.14)    4.9066                   (X_U3.53)   13.0000                       

(X_U3.54)  -13.0000                   (X_U3.90)    -.9591                       

(X_U3.91)   22.0000                   (X_U3.92)  -22.0000                       

(X_U3.99)    0.0000                   (X_U4.10)    7.2776                       

(X_U4.11)   14.9420                   (X_U4.12)   14.9420                       

(X_U4.13)    7.3085                   (X_U4.14)    7.3085                       

(X_U4.53)   13.0000                   (X_U4.54)  -13.0000                       

(X_U4.90)    1.1957                   (X_U4.91)   22.0000                       

(X_U4.92)  -22.0000                   (X_U4.99)    0.0000                       

(X_U5.10)    9.9972                   (X_U5.11)   15.0000                       

(X_U5.12)   14.8830                   (X_U5.13)    9.9972                       

(X_U5.14)   10.0600                   (X_U5.53)   13.0000                       

(X_U5.54)  -13.0000                   (X_U5.90)   22.7330                       

(X_U5.91)   22.0000                   (X_U5.92)  -22.0000                       

(X_U5.99)    0.0000                   (X_U6.10)    9.9863                       

(X_U6.11)   14.9420                   (X_U6.12)   14.9410                       

(X_U6.13)   10.0180                   (X_U6.14)   10.0180                       

(X_U6.53)   13.0000                   (X_U6.54)  -13.0000                       

(X_U6.90)    -.0601                   (X_U6.91)   22.0000                       

(X_U6.92)  -22.0000                   (X_U6.99)    0.0000                   




    VOLTAGE SOURCE CURRENTS
    NAME         CURRENT

    V_V1        -1.113E+00
    V_V2         2.250E-02
    V_V3        -1.864E-02
    X_U2.vb     -4.786E-07
    X_U2.vc      5.457E-12
    X_U2.ve      2.232E-11
    X_U2.vlim    9.593E-04
    X_U2.vlp    -2.104E-11
    X_U2.vln    -2.296E-11
    X_U3.vb     -6.621E-08
    X_U3.vc      1.188E-11
    X_U3.ve      1.591E-11
    X_U3.vlim   -9.591E-04
    X_U3.vlp    -2.296E-11
    X_U3.vln    -2.104E-11
    X_U4.vb     -5.097E-07
    X_U4.vc      4.980E-12
    X_U4.ve      2.280E-11
    X_U4.vlim    1.196E-03
    X_U4.vlp    -2.081E-11
    X_U4.vln    -2.320E-11
    X_U5.vb     -1.469E-03
    X_U5.vc      1.953E-12
    X_U5.ve      2.583E-11
    X_U5.vlim    2.273E-02
    X_U5.vlp     1.557E-03
    X_U5.vln    -4.474E-11
    X_U6.vb     -6.740E-07
    X_U6.vc      2.271E-12
    X_U6.ve      2.551E-11
    X_U6.vlim   -6.005E-05
    X_U6.vlp    -2.206E-11
    X_U6.vln    -2.194E-11

    TOTAL POWER DISSIPATION   1.73E+01  WATTS


**** 07/03/23 18:54:54 **** PSpice 22.1.0 (6 October 2022) **** ID# 0 ********

 ** Profile: "SCHEMATIC1-sim_MontCarl"  [ C:\Users\maria\OneDrive - Technical University of Cluj-Napoca\Desktop\PROIECT_CAD_UwU\Nasca


 ****     INITIAL TRANSIENT SOLUTION       TEMPERATURE =   27.000 DEG C

                      MONTE CARLO PASS 5

******************************************************************************



 NODE   VOLTAGE     NODE   VOLTAGE     NODE   VOLTAGE     NODE   VOLTAGE


(  OUT)    1.1325  ( +VCC)   15.0000  ( -VCC)  -15.0000  ( OUT2)   11.0310      

( VREF)    7.5761  (VREF2)   10.7620  (N14397)   14.5000 (N14486)    8.0485     

(N15621)    8.0484 (N15935)    7.5762 (N16344)    5.6531 (N16580)    5.6531     

(N18090)   10.7620 (N18284)   10.8130 (N18859)   15.0000 (N18863)   11.7420     

(N20012)     .8605 (N20016)     .0108 (N20331)    6.0018 (X_U2.6)    -.0481     

(X_U2.7)    7.6241 (X_U2.8)    7.6241 (X_U2.9)    0.0000 (X_U3.6)    -.0067     

(X_U3.7)    1.0845 (X_U3.8)    1.0845 (X_U3.9)    0.0000 (X_U4.6)    -.0511     

(X_U4.7)    8.1086 (X_U4.8)    8.1086 (X_U4.9)    0.0000 (X_U5.6) -146.8900     

(X_U5.7)   12.1680 (X_U5.8)   12.1680 (X_U5.9)    0.0000 (X_U6.6)    -.0676     

(X_U6.7)   10.7590 (X_U6.8)   10.7590 (X_U6.9)    0.0000 (N198520)    3.1338    

(N204421)    3.5566                   (X_U2.10)    6.8333                       

(X_U2.11)   14.9420                   (X_U2.12)   14.9420                       

(X_U2.13)    6.8641                   (X_U2.14)    6.8642                       

(X_U2.53)   13.0000                   (X_U2.54)  -13.0000                       

(X_U2.90)     .9591                   (X_U2.91)   22.0000                       

(X_U2.92)  -22.0000                   (X_U2.99)    0.0000                       

(X_U3.10)    4.9107                   (X_U3.11)   14.9430                       

(X_U3.12)   14.9430                   (X_U3.13)    4.9412                       

(X_U3.14)    4.9413                   (X_U3.53)   13.0000                       

(X_U3.54)  -13.0000                   (X_U3.90)    -.9588                       

(X_U3.91)   22.0000                   (X_U3.92)  -22.0000                       

(X_U3.99)    0.0000                   (X_U4.10)    7.3054                       

(X_U4.11)   14.9420                   (X_U4.12)   14.9420                       

(X_U4.13)    7.3363                   (X_U4.14)    7.3364                       

(X_U4.53)   13.0000                   (X_U4.54)  -13.0000                       

(X_U4.90)    1.2030                   (X_U4.91)   22.0000                       

(X_U4.92)  -22.0000                   (X_U4.99)    0.0000                       

(X_U5.10)   10.0200                   (X_U5.11)   15.0000                       

(X_U5.12)   14.8830                   (X_U5.13)   10.0200                       

(X_U5.14)   10.0820                   (X_U5.53)   13.0000                       

(X_U5.54)  -13.0000                   (X_U5.90)   22.7330                       

(X_U5.91)   22.0000                   (X_U5.92)  -22.0000                       

(X_U5.99)    0.0000                   (X_U6.10)   10.0180                       

(X_U6.11)   14.9420                   (X_U6.12)   14.9410                       

(X_U6.13)   10.0490                   (X_U6.14)   10.0490                       

(X_U6.53)   13.0000                   (X_U6.54)  -13.0000                       

(X_U6.90)    -.0509                   (X_U6.91)   22.0000                       

(X_U6.92)  -22.0000                   (X_U6.99)    0.0000                   




    VOLTAGE SOURCE CURRENTS
    NAME         CURRENT

    V_V1        -1.106E+00
    V_V2         2.250E-02
    V_V3        -1.864E-02
    X_U2.vb     -4.806E-07
    X_U2.vc      5.425E-12
    X_U2.ve      2.236E-11
    X_U2.vlim    9.591E-04
    X_U2.vlp    -2.104E-11
    X_U2.vln    -2.296E-11
    X_U3.vb     -6.665E-08
    X_U3.vc      1.187E-11
    X_U3.ve      1.591E-11
    X_U3.vlim   -9.588E-04
    X_U3.vlp    -2.296E-11
    X_U3.vln    -2.104E-11
    X_U4.vb     -5.115E-07
    X_U4.vc      4.952E-12
    X_U4.ve      2.283E-11
    X_U4.vlim    1.203E-03
    X_U4.vlp    -2.080E-11
    X_U4.vln    -2.321E-11
    X_U5.vb     -1.469E-03
    X_U5.vc      1.970E-12
    X_U5.ve      2.581E-11
    X_U5.vlim    2.273E-02
    X_U5.vlp     1.557E-03
    X_U5.vln    -4.474E-11
    X_U6.vb     -6.761E-07
    X_U6.vc      2.239E-12
    X_U6.ve      2.554E-11
    X_U6.vlim   -5.092E-05
    X_U6.vlp    -2.205E-11
    X_U6.vln    -2.195E-11

    TOTAL POWER DISSIPATION   1.72E+01  WATTS


**** 07/03/23 18:54:54 **** PSpice 22.1.0 (6 October 2022) **** ID# 0 ********

 ** Profile: "SCHEMATIC1-sim_MontCarl"  [ C:\Users\maria\OneDrive - Technical University of Cluj-Napoca\Desktop\PROIECT_CAD_UwU\Nasca


 ****     INITIAL TRANSIENT SOLUTION       TEMPERATURE =   27.000 DEG C

                      MONTE CARLO PASS 6

******************************************************************************



 NODE   VOLTAGE     NODE   VOLTAGE     NODE   VOLTAGE     NODE   VOLTAGE


(  OUT)    1.1297  ( +VCC)   15.0000  ( -VCC)  -15.0000  ( OUT2)   11.0390      

( VREF)    7.5803  (VREF2)   10.7240  (N14397)   14.4990 (N14486)    8.0612     

(N15621)    8.0611 (N15935)    7.5804 (N16344)    5.6504 (N16580)    5.6504     

(N18090)   10.7240 (N18284)   10.7830 (N18859)   15.0000 (N18863)   11.7420     

(N20012)     .8603 (N20016)     .0109 (N20331)    6.0027 (X_U2.6)    -.0481     

(X_U2.7)    7.6284 (X_U2.8)    7.6284 (X_U2.9)    0.0000 (X_U3.6)    -.0066     

(X_U3.7)    1.0816 (X_U3.8)    1.0816 (X_U3.9)    0.0000 (X_U4.6)    -.0512     

(X_U4.7)    8.1212 (X_U4.8)    8.1212 (X_U4.9)    0.0000 (X_U5.6) -146.8700     

(X_U5.7)   12.1750 (X_U5.8)   12.1750 (X_U5.9)    0.0000 (X_U6.6)    -.0674     

(X_U6.7)   10.7210 (X_U6.8)   10.7210 (X_U6.9)    0.0000 (N198520)    3.1340    

(N204421)    3.5595                   (X_U2.10)    6.8374                       

(X_U2.11)   14.9420                   (X_U2.12)   14.9420                       

(X_U2.13)    6.8682                   (X_U2.14)    6.8683                       

(X_U2.53)   13.0000                   (X_U2.54)  -13.0000                       

(X_U2.90)     .9624                   (X_U2.91)   22.0000                       

(X_U2.92)  -22.0000                   (X_U2.99)    0.0000                       

(X_U3.10)    4.9080                   (X_U3.11)   14.9430                       

(X_U3.12)   14.9430                   (X_U3.13)    4.9386                       

(X_U3.14)    4.9386                   (X_U3.53)   13.0000                       

(X_U3.54)  -13.0000                   (X_U3.90)    -.9621                       

(X_U3.91)   22.0000                   (X_U3.92)  -22.0000                       

(X_U3.99)    0.0000                   (X_U4.10)    7.3181                       

(X_U4.11)   14.9420                   (X_U4.12)   14.9420                       

(X_U4.13)    7.3490                   (X_U4.14)    7.3491                       

(X_U4.53)   13.0000                   (X_U4.54)  -13.0000                       

(X_U4.90)    1.2025                   (X_U4.91)   22.0000                       

(X_U4.92)  -22.0000                   (X_U4.99)    0.0000                       

(X_U5.10)    9.9905                   (X_U5.11)   15.0000                       

(X_U5.12)   14.8830                   (X_U5.13)    9.9905                       

(X_U5.14)   10.0530                   (X_U5.53)   13.0000                       

(X_U5.54)  -13.0000                   (X_U5.90)   22.7330                       

(X_U5.91)   22.0000                   (X_U5.92)  -22.0000                       

(X_U5.99)    0.0000                   (X_U6.10)    9.9798                       

(X_U6.11)   14.9420                   (X_U6.12)   14.9410                       

(X_U6.13)   10.0110                   (X_U6.14)   10.0110                       

(X_U6.53)   13.0000                   (X_U6.54)  -13.0000                       

(X_U6.90)    -.0596                   (X_U6.91)   22.0000                       

(X_U6.92)  -22.0000                   (X_U6.99)    0.0000                   




    VOLTAGE SOURCE CURRENTS
    NAME         CURRENT

    V_V1        -1.108E+00
    V_V2         2.250E-02
    V_V3        -1.864E-02
    X_U2.vb     -4.809E-07
    X_U2.vc      5.421E-12
    X_U2.ve      2.236E-11
    X_U2.vlim    9.624E-04
    X_U2.vlp    -2.104E-11
    X_U2.vln    -2.297E-11
    X_U3.vb     -6.646E-08
    X_U3.vc      1.187E-11
    X_U3.ve      1.591E-11
    X_U3.vlim   -9.621E-04
    X_U3.vlp    -2.296E-11
    X_U3.vln    -2.104E-11
    X_U4.vb     -5.123E-07
    X_U4.vc      4.940E-12
    X_U4.ve      2.284E-11
    X_U4.vlim    1.202E-03
    X_U4.vlp    -2.080E-11
    X_U4.vln    -2.320E-11
    X_U5.vb     -1.469E-03
    X_U5.vc      1.962E-12
    X_U5.ve      2.582E-11
    X_U5.vlim    2.273E-02
    X_U5.vlp     1.557E-03
    X_U5.vln    -4.474E-11
    X_U6.vb     -6.736E-07
    X_U6.vc      2.277E-12
    X_U6.ve      2.550E-11
    X_U6.vlim   -5.965E-05
    X_U6.vlp    -2.206E-11
    X_U6.vln    -2.194E-11

    TOTAL POWER DISSIPATION   1.72E+01  WATTS


**** 07/03/23 18:54:54 **** PSpice 22.1.0 (6 October 2022) **** ID# 0 ********

 ** Profile: "SCHEMATIC1-sim_MontCarl"  [ C:\Users\maria\OneDrive - Technical University of Cluj-Napoca\Desktop\PROIECT_CAD_UwU\Nasca


 ****     INITIAL TRANSIENT SOLUTION       TEMPERATURE =   27.000 DEG C

                      MONTE CARLO PASS 7

******************************************************************************



 NODE   VOLTAGE     NODE   VOLTAGE     NODE   VOLTAGE     NODE   VOLTAGE


(  OUT)    1.0805  ( +VCC)   15.0000  ( -VCC)  -15.0000  ( OUT2)   11.0220      

( VREF)    7.5787  (VREF2)   10.7430  (N14397)   14.5000 (N14486)    8.0380     

(N15621)    8.0379 (N15935)    7.5788 (N16344)    5.6402 (N16580)    5.6402     

(N18090)   10.7430 (N18284)   10.7960 (N18859)   15.0000 (N18863)   11.7420     

(N20012)     .8605 (N20016)     .0108 (N20331)    5.9875 (X_U2.6)    -.0481     

(X_U2.7)    7.6271 (X_U2.8)    7.6271 (X_U2.9)    0.0000 (X_U3.6)    -.0063     

(X_U3.7)    1.0322 (X_U3.8)    1.0322 (X_U3.9)    0.0000 (X_U4.6)    -.0511     

(X_U4.7)    8.0979 (X_U4.8)    8.0979 (X_U4.9)    0.0000 (X_U5.6) -146.8800     

(X_U5.7)   12.1590 (X_U5.8)   12.1590 (X_U5.9)    0.0000 (X_U6.6)    -.0675     

(X_U6.7)   10.7400 (X_U6.8)   10.7400 (X_U6.9)    0.0000 (N198520)    3.1338    

(N204421)    3.5356                   (X_U2.10)    6.8359                       

(X_U2.11)   14.9420                   (X_U2.12)   14.9420                       

(X_U2.13)    6.8667                   (X_U2.14)    6.8668                       

(X_U2.53)   13.0000                   (X_U2.54)  -13.0000                       

(X_U2.90)     .9666                   (X_U2.91)   22.0000                       

(X_U2.92)  -22.0000                   (X_U2.99)    0.0000                       

(X_U3.10)    4.8978                   (X_U3.11)   14.9430                       

(X_U3.12)   14.9430                   (X_U3.13)    4.9284                       

(X_U3.14)    4.9284                   (X_U3.53)   13.0000                       

(X_U3.54)  -13.0000                   (X_U3.90)    -.9664                       

(X_U3.91)   22.0000                   (X_U3.92)  -22.0000                       

(X_U3.99)    0.0000                   (X_U4.10)    7.2949                       

(X_U4.11)   14.9420                   (X_U4.12)   14.9420                       

(X_U4.13)    7.3258                   (X_U4.14)    7.3259                       

(X_U4.53)   13.0000                   (X_U4.54)  -13.0000                       

(X_U4.90)    1.2003                   (X_U4.91)   22.0000                       

(X_U4.92)  -22.0000                   (X_U4.99)    0.0000                       

(X_U5.10)   10.0030                   (X_U5.11)   15.0000                       

(X_U5.12)   14.8830                   (X_U5.13)   10.0030                       

(X_U5.14)   10.0650                   (X_U5.53)   13.0000                       

(X_U5.54)  -13.0000                   (X_U5.90)   22.7330                       

(X_U5.91)   22.0000                   (X_U5.92)  -22.0000                       

(X_U5.99)    0.0000                   (X_U6.10)    9.9990                       

(X_U6.11)   14.9420                   (X_U6.12)   14.9410                       

(X_U6.13)   10.0300                   (X_U6.14)   10.0300                       

(X_U6.53)   13.0000                   (X_U6.54)  -13.0000                       

(X_U6.90)    -.0529                   (X_U6.91)   22.0000                       

(X_U6.92)  -22.0000                   (X_U6.99)    0.0000                   




    VOLTAGE SOURCE CURRENTS
    NAME         CURRENT

    V_V1        -1.106E+00
    V_V2         2.250E-02
    V_V3        -1.864E-02
    X_U2.vb     -4.808E-07
    X_U2.vc      5.422E-12
    X_U2.ve      2.236E-11
    X_U2.vlim    9.666E-04
    X_U2.vlp    -2.103E-11
    X_U2.vln    -2.297E-11
    X_U3.vb     -6.335E-08
    X_U3.vc      1.192E-11
    X_U3.ve      1.586E-11
    X_U3.vlim   -9.664E-04
    X_U3.vlp    -2.297E-11
    X_U3.vln    -2.104E-11
    X_U4.vb     -5.108E-07
    X_U4.vc      4.963E-12
    X_U4.ve      2.282E-11
    X_U4.vlim    1.200E-03
    X_U4.vlp    -2.080E-11
    X_U4.vln    -2.320E-11
    X_U5.vb     -1.469E-03
    X_U5.vc      1.979E-12
    X_U5.ve      2.580E-11
    X_U5.vlim    2.273E-02
    X_U5.vlp     1.557E-03
    X_U5.vln    -4.474E-11
    X_U6.vb     -6.749E-07
    X_U6.vc      2.258E-12
    X_U6.ve      2.552E-11
    X_U6.vlim   -5.288E-05
    X_U6.vlp    -2.205E-11
    X_U6.vln    -2.195E-11

    TOTAL POWER DISSIPATION   1.72E+01  WATTS


**** 07/03/23 18:54:54 **** PSpice 22.1.0 (6 October 2022) **** ID# 0 ********

 ** Profile: "SCHEMATIC1-sim_MontCarl"  [ C:\Users\maria\OneDrive - Technical University of Cluj-Napoca\Desktop\PROIECT_CAD_UwU\Nasca


 ****     INITIAL TRANSIENT SOLUTION       TEMPERATURE =   27.000 DEG C

                      MONTE CARLO PASS 8

******************************************************************************



 NODE   VOLTAGE     NODE   VOLTAGE     NODE   VOLTAGE     NODE   VOLTAGE


(  OUT)    1.1088  ( +VCC)   15.0000  ( -VCC)  -15.0000  ( OUT2)   11.0460      

( VREF)    7.5679  (VREF2)   10.7390  (N14397)   14.5000 (N14486)    8.0364     

(N15621)    8.0363 (N15935)    7.5680 (N16344)    5.6356 (N16580)    5.6356     

(N18090)   10.7390 (N18284)   10.7970 (N18859)   15.0000 (N18863)   11.7420     

(N20012)     .8606 (N20016)     .0109 (N20331)    6.0021 (X_U2.6)    -.0480     

(X_U2.7)    7.6162 (X_U2.8)    7.6162 (X_U2.9)    0.0000 (X_U3.6)    -.0065     

(X_U3.7)    1.0605 (X_U3.8)    1.0605 (X_U3.9)    0.0000 (X_U4.6)    -.0511     

(X_U4.7)    8.0962 (X_U4.8)    8.0962 (X_U4.9)    0.0000 (X_U5.6) -146.8800     

(X_U5.7)   12.1830 (X_U5.8)   12.1830 (X_U5.9)    0.0000 (X_U6.6)    -.0675     

(X_U6.7)   10.7360 (X_U6.8)   10.7360 (X_U6.9)    0.0000 (N198520)    3.1336    

(N204421)    3.5609                   (X_U2.10)    6.8251                       

(X_U2.11)   14.9420                   (X_U2.12)   14.9420                       

(X_U2.13)    6.8559                   (X_U2.14)    6.8559                       

(X_U2.53)   13.0000                   (X_U2.54)  -13.0000                       

(X_U2.90)     .9644                   (X_U2.91)   22.0000                       

(X_U2.92)  -22.0000                   (X_U2.99)    0.0000                       

(X_U3.10)    4.8932                   (X_U3.11)   14.9430                       

(X_U3.12)   14.9430                   (X_U3.13)    4.9238                       

(X_U3.14)    4.9238                   (X_U3.53)   13.0000                       

(X_U3.54)  -13.0000                   (X_U3.90)    -.9642                       

(X_U3.91)   22.0000                   (X_U3.92)  -22.0000                       

(X_U3.99)    0.0000                   (X_U4.10)    7.2933                       

(X_U4.11)   14.9420                   (X_U4.12)   14.9420                       

(X_U4.13)    7.3242                   (X_U4.14)    7.3242                       

(X_U4.53)   13.0000                   (X_U4.54)  -13.0000                       

(X_U4.90)    1.1993                   (X_U4.91)   22.0000                       

(X_U4.92)  -22.0000                   (X_U4.99)    0.0000                       

(X_U5.10)   10.0040                   (X_U5.11)   15.0000                       

(X_U5.12)   14.8830                   (X_U5.13)   10.0040                       

(X_U5.14)   10.0660                   (X_U5.53)   13.0000                       

(X_U5.54)  -13.0000                   (X_U5.90)   22.7330                       

(X_U5.91)   22.0000                   (X_U5.92)  -22.0000                       

(X_U5.99)    0.0000                   (X_U6.10)    9.9952                       

(X_U6.11)   14.9420                   (X_U6.12)   14.9410                       

(X_U6.13)   10.0270                   (X_U6.14)   10.0270                       

(X_U6.53)   13.0000                   (X_U6.54)  -13.0000                       

(X_U6.90)    -.0581                   (X_U6.91)   22.0000                       

(X_U6.92)  -22.0000                   (X_U6.99)    0.0000                   




    VOLTAGE SOURCE CURRENTS
    NAME         CURRENT

    V_V1        -1.105E+00
    V_V2         2.250E-02
    V_V3        -1.864E-02
    X_U2.vb     -4.801E-07
    X_U2.vc      5.433E-12
    X_U2.ve      2.235E-11
    X_U2.vlim    9.644E-04
    X_U2.vlp    -2.104E-11
    X_U2.vln    -2.297E-11
    X_U3.vb     -6.513E-08
    X_U3.vc      1.189E-11
    X_U3.ve      1.589E-11
    X_U3.vlim   -9.642E-04
    X_U3.vlp    -2.297E-11
    X_U3.vln    -2.104E-11
    X_U4.vb     -5.107E-07
    X_U4.vc      4.965E-12
    X_U4.ve      2.282E-11
    X_U4.vlim    1.199E-03
    X_U4.vlp    -2.080E-11
    X_U4.vln    -2.320E-11
    X_U5.vb     -1.469E-03
    X_U5.vc      1.955E-12
    X_U5.ve      2.583E-11
    X_U5.vlim    2.273E-02
    X_U5.vlp     1.557E-03
    X_U5.vln    -4.474E-11
    X_U6.vb     -6.746E-07
    X_U6.vc      2.262E-12
    X_U6.ve      2.552E-11
    X_U6.vlim   -5.805E-05
    X_U6.vlp    -2.206E-11
    X_U6.vln    -2.194E-11

    TOTAL POWER DISSIPATION   1.72E+01  WATTS


**** 07/03/23 18:54:54 **** PSpice 22.1.0 (6 October 2022) **** ID# 0 ********

 ** Profile: "SCHEMATIC1-sim_MontCarl"  [ C:\Users\maria\OneDrive - Technical University of Cluj-Napoca\Desktop\PROIECT_CAD_UwU\Nasca


 ****     INITIAL TRANSIENT SOLUTION       TEMPERATURE =   27.000 DEG C

                      MONTE CARLO PASS 9

******************************************************************************



 NODE   VOLTAGE     NODE   VOLTAGE     NODE   VOLTAGE     NODE   VOLTAGE


(  OUT)    1.0122  ( +VCC)   15.0000  ( -VCC)  -15.0000  ( OUT2)   11.0330      

( VREF)    7.5693  (VREF2)   10.7590  (N14397)   14.5000 (N14486)    7.9934     

(N15621)    7.9933 (N15935)    7.5694 (N16344)    5.6046 (N16580)    5.6045     

(N18090)   10.7590 (N18284)   10.8110 (N18859)   15.0000 (N18863)   11.7420     

(N20012)     .8607 (N20016)     .0108 (N20331)    5.9980 (X_U2.6)    -.0480     

(X_U2.7)    7.6183 (X_U2.8)    7.6183 (X_U2.9)    0.0000 (X_U3.6)    -.0059     

(X_U3.7)     .9633 (X_U3.8)     .9633 (X_U3.9)    0.0000 (X_U4.6)    -.0508     

(X_U4.7)    8.0530 (X_U4.8)    8.0530 (X_U4.9)    0.0000 (X_U5.6) -146.8900     

(X_U5.7)   12.1700 (X_U5.8)   12.1700 (X_U5.9)    0.0000 (X_U6.6)    -.0676     

(X_U6.7)   10.7570 (X_U6.8)   10.7570 (X_U6.9)    0.0000 (N198520)    3.1335    

(N204421)    3.5449                   (X_U2.10)    6.8265                       

(X_U2.11)   14.9420                   (X_U2.12)   14.9420                       

(X_U2.13)    6.8573                   (X_U2.14)    6.8574                       

(X_U2.53)   13.0000                   (X_U2.54)  -13.0000                       

(X_U2.90)     .9785                   (X_U2.91)   22.0000                       

(X_U2.92)  -22.0000                   (X_U2.99)    0.0000                       

(X_U3.10)    4.8622                   (X_U3.11)   14.9430                       

(X_U3.12)   14.9430                   (X_U3.13)    4.8927                       

(X_U3.14)    4.8927                   (X_U3.53)   13.0000                       

(X_U3.54)  -13.0000                   (X_U3.90)    -.9782                       

(X_U3.91)   22.0000                   (X_U3.92)  -22.0000                       

(X_U3.99)    0.0000                   (X_U4.10)    7.2504                       

(X_U4.11)   14.9420                   (X_U4.12)   14.9420                       

(X_U4.13)    7.2812                   (X_U4.14)    7.2813                       

(X_U4.53)   13.0000                   (X_U4.54)  -13.0000                       

(X_U4.90)    1.1927                   (X_U4.91)   22.0000                       

(X_U4.92)  -22.0000                   (X_U4.99)    0.0000                       

(X_U5.10)   10.0180                   (X_U5.11)   15.0000                       

(X_U5.12)   14.8830                   (X_U5.13)   10.0180                       

(X_U5.14)   10.0810                   (X_U5.53)   13.0000                       

(X_U5.54)  -13.0000                   (X_U5.90)   22.7330                       

(X_U5.91)   22.0000                   (X_U5.92)  -22.0000                       

(X_U5.99)    0.0000                   (X_U6.10)   10.0160                       

(X_U6.11)   14.9420                   (X_U6.12)   14.9410                       

(X_U6.13)   10.0470                   (X_U6.14)   10.0470                       

(X_U6.53)   13.0000                   (X_U6.54)  -13.0000                       

(X_U6.90)    -.0514                   (X_U6.91)   22.0000                       

(X_U6.92)  -22.0000                   (X_U6.99)    0.0000                   




    VOLTAGE SOURCE CURRENTS
    NAME         CURRENT

    V_V1        -1.106E+00
    V_V2         2.250E-02
    V_V3        -1.864E-02
    X_U2.vb     -4.803E-07
    X_U2.vc      5.431E-12
    X_U2.ve      2.235E-11
    X_U2.vlim    9.785E-04
    X_U2.vlp    -2.102E-11
    X_U2.vln    -2.298E-11
    X_U3.vb     -5.900E-08
    X_U3.vc      1.199E-11
    X_U3.ve      1.579E-11
    X_U3.vlim   -9.782E-04
    X_U3.vlp    -2.298E-11
    X_U3.vln    -2.102E-11
    X_U4.vb     -5.080E-07
    X_U4.vc      5.007E-12
    X_U4.ve      2.277E-11
    X_U4.vlim    1.193E-03
    X_U4.vlp    -2.081E-11
    X_U4.vln    -2.319E-11
    X_U5.vb     -1.469E-03
    X_U5.vc      1.968E-12
    X_U5.ve      2.581E-11
    X_U5.vlim    2.273E-02
    X_U5.vlp     1.557E-03
    X_U5.vln    -4.474E-11
    X_U6.vb     -6.759E-07
    X_U6.vc      2.242E-12
    X_U6.ve      2.554E-11
    X_U6.vlim   -5.142E-05
    X_U6.vlp    -2.205E-11
    X_U6.vln    -2.195E-11

    TOTAL POWER DISSIPATION   1.72E+01  WATTS


**** 07/03/23 18:54:54 **** PSpice 22.1.0 (6 October 2022) **** ID# 0 ********

 ** Profile: "SCHEMATIC1-sim_MontCarl"  [ C:\Users\maria\OneDrive - Technical University of Cluj-Napoca\Desktop\PROIECT_CAD_UwU\Nasca


 ****     INITIAL TRANSIENT SOLUTION       TEMPERATURE =   27.000 DEG C

                      MONTE CARLO PASS 10

******************************************************************************



 NODE   VOLTAGE     NODE   VOLTAGE     NODE   VOLTAGE     NODE   VOLTAGE


(  OUT)    1.0485  ( +VCC)   15.0000  ( -VCC)  -15.0000  ( OUT2)   11.0130      

( VREF)    7.5862  (VREF2)   10.7280  (N14397)   14.5000 (N14486)    8.0272     

(N15621)    8.0271 (N15935)    7.5863 (N16344)    5.6254 (N16580)    5.6253     

(N18090)   10.7280 (N18284)   10.7810 (N18859)   15.0000 (N18863)   11.7420     

(N20012)     .8608 (N20016)     .0108 (N20331)    5.9815 (X_U2.6)    -.0481     

(X_U2.7)    7.6350 (X_U2.8)    7.6350 (X_U2.9)    0.0000 (X_U3.6)    -.0061     

(X_U3.7)     .9997 (X_U3.8)     .9997 (X_U3.9)    0.0000 (X_U4.6)    -.0510     

(X_U4.7)    8.0870 (X_U4.8)    8.0870 (X_U4.9)    0.0000 (X_U5.6) -146.8700     

(X_U5.7)   12.1490 (X_U5.8)   12.1490 (X_U5.9)    0.0000 (X_U6.6)    -.0674     

(X_U6.7)   10.7250 (X_U6.8)   10.7250 (X_U6.9)    0.0000 (N198520)    3.1334    

(N204421)    3.5397                   (X_U2.10)    6.8433                       

(X_U2.11)   14.9420                   (X_U2.12)   14.9420                       

(X_U2.13)    6.8741                   (X_U2.14)    6.8742                       

(X_U2.53)   13.0000                   (X_U2.54)  -13.0000                       

(X_U2.90)     .9762                   (X_U2.91)   22.0000                       

(X_U2.92)  -22.0000                   (X_U2.99)    0.0000                       

(X_U3.10)    4.8830                   (X_U3.11)   14.9430                       

(X_U3.12)   14.9430                   (X_U3.13)    4.9135                       

(X_U3.14)    4.9135                   (X_U3.53)   13.0000                       

(X_U3.54)  -13.0000                   (X_U3.90)    -.9760                       

(X_U3.91)   22.0000                   (X_U3.92)  -22.0000                       

(X_U3.99)    0.0000                   (X_U4.10)    7.2841                       

(X_U4.11)   14.9420                   (X_U4.12)   14.9420                       

(X_U4.13)    7.3150                   (X_U4.14)    7.3151                       

(X_U4.53)   13.0000                   (X_U4.54)  -13.0000                       

(X_U4.90)    1.1971                   (X_U4.91)   22.0000                       

(X_U4.92)  -22.0000                   (X_U4.99)    0.0000                       

(X_U5.10)    9.9883                   (X_U5.11)   15.0000                       

(X_U5.12)   14.8830                   (X_U5.13)    9.9883                       

(X_U5.14)   10.0510                   (X_U5.53)   13.0000                       

(X_U5.54)  -13.0000                   (X_U5.90)   22.7330                       

(X_U5.91)   22.0000                   (X_U5.92)  -22.0000                       

(X_U5.99)    0.0000                   (X_U6.10)    9.9840                       

(X_U6.11)   14.9420                   (X_U6.12)   14.9410                       

(X_U6.13)   10.0150                   (X_U6.14)   10.0150                       

(X_U6.53)   13.0000                   (X_U6.54)  -13.0000                       

(X_U6.90)    -.0537                   (X_U6.91)   22.0000                       

(X_U6.92)  -22.0000                   (X_U6.99)    0.0000                   




    VOLTAGE SOURCE CURRENTS
    NAME         CURRENT

    V_V1        -1.107E+00
    V_V2         2.250E-02
    V_V3        -1.864E-02
    X_U2.vb     -4.813E-07
    X_U2.vc      5.415E-12
    X_U2.ve      2.237E-11
    X_U2.vlim    9.762E-04
    X_U2.vlp    -2.102E-11
    X_U2.vln    -2.298E-11
    X_U3.vb     -6.129E-08
    X_U3.vc      1.195E-11
    X_U3.ve      1.583E-11
    X_U3.vlim   -9.760E-04
    X_U3.vlp    -2.298E-11
    X_U3.vln    -2.103E-11
    X_U4.vb     -5.101E-07
    X_U4.vc      4.974E-12
    X_U4.ve      2.281E-11
    X_U4.vlim    1.197E-03
    X_U4.vlp    -2.080E-11
    X_U4.vln    -2.320E-11
    X_U5.vb     -1.469E-03
    X_U5.vc      1.988E-12
    X_U5.ve      2.579E-11
    X_U5.vlim    2.273E-02
    X_U5.vlp     1.557E-03
    X_U5.vln    -4.474E-11
    X_U6.vb     -6.739E-07
    X_U6.vc      2.273E-12
    X_U6.ve      2.551E-11
    X_U6.vlim   -5.370E-05
    X_U6.vlp    -2.205E-11
    X_U6.vln    -2.195E-11

    TOTAL POWER DISSIPATION   1.72E+01  WATTS


**** 07/03/23 18:54:54 **** PSpice 22.1.0 (6 October 2022) **** ID# 0 ********

 ** Profile: "SCHEMATIC1-sim_MontCarl"  [ C:\Users\maria\OneDrive - Technical University of Cluj-Napoca\Desktop\PROIECT_CAD_UwU\Nasca


 ****     INITIAL TRANSIENT SOLUTION       TEMPERATURE =   27.000 DEG C

                      MONTE CARLO PASS 11

******************************************************************************



 NODE   VOLTAGE     NODE   VOLTAGE     NODE   VOLTAGE     NODE   VOLTAGE


(  OUT)     .9922  ( +VCC)   15.0000  ( -VCC)  -15.0000  ( OUT2)   11.0130      

( VREF)    7.5704  (VREF2)   10.7370  (N14397)   14.5000 (N14486)    7.9937     

(N15621)    7.9936 (N15935)    7.5705 (N16344)    5.6051 (N16580)    5.6051     

(N18090)   10.7370 (N18284)   10.7890 (N18859)   15.0000 (N18863)   11.7420     

(N20012)     .8605 (N20016)     .0109 (N20331)    5.9872 (X_U2.6)    -.0480     

(X_U2.7)    7.6194 (X_U2.8)    7.6194 (X_U2.9)    0.0000 (X_U3.6)    -.0058     

(X_U3.7)     .9432 (X_U3.8)     .9432 (X_U3.9)    0.0000 (X_U4.6)    -.0508     

(X_U4.7)    8.0532 (X_U4.8)    8.0532 (X_U4.9)    0.0000 (X_U5.6) -146.8800     

(X_U5.7)   12.1490 (X_U5.8)   12.1490 (X_U5.9)    0.0000 (X_U6.6)    -.0674     

(X_U6.7)   10.7340 (X_U6.8)   10.7340 (X_U6.9)    0.0000 (N198520)    3.1338    

(N204421)    3.5463                   (X_U2.10)    6.8275                       

(X_U2.11)   14.9420                   (X_U2.12)   14.9420                       

(X_U2.13)    6.8583                   (X_U2.14)    6.8584                       

(X_U2.53)   13.0000                   (X_U2.54)  -13.0000                       

(X_U2.90)     .9814                   (X_U2.91)   22.0000                       

(X_U2.92)  -22.0000                   (X_U2.99)    0.0000                       

(X_U3.10)    4.8627                   (X_U3.11)   14.9430                       

(X_U3.12)   14.9430                   (X_U3.13)    4.8933                       

(X_U3.14)    4.8933                   (X_U3.53)   13.0000                       

(X_U3.54)  -13.0000                   (X_U3.90)    -.9811                       

(X_U3.91)   22.0000                   (X_U3.92)  -22.0000                       

(X_U3.99)    0.0000                   (X_U4.10)    7.2506                       

(X_U4.11)   14.9420                   (X_U4.12)   14.9420                       

(X_U4.13)    7.2815                   (X_U4.14)    7.2816                       

(X_U4.53)   13.0000                   (X_U4.54)  -13.0000                       

(X_U4.90)    1.1928                   (X_U4.91)   22.0000                       

(X_U4.92)  -22.0000                   (X_U4.99)    0.0000                       

(X_U5.10)    9.9958                   (X_U5.11)   15.0000                       

(X_U5.12)   14.8830                   (X_U5.13)    9.9958                       

(X_U5.14)   10.0580                   (X_U5.53)   13.0000                       

(X_U5.54)  -13.0000                   (X_U5.90)   22.7330                       

(X_U5.91)   22.0000                   (X_U5.92)  -22.0000                       

(X_U5.99)    0.0000                   (X_U6.10)    9.9928                       

(X_U6.11)   14.9420                   (X_U6.12)   14.9410                       

(X_U6.13)   10.0240                   (X_U6.14)   10.0240                       

(X_U6.53)   13.0000                   (X_U6.54)  -13.0000                       

(X_U6.90)    -.0520                   (X_U6.91)   22.0000                       

(X_U6.92)  -22.0000                   (X_U6.99)    0.0000                   




    VOLTAGE SOURCE CURRENTS
    NAME         CURRENT

    V_V1        -1.105E+00
    V_V2         2.250E-02
    V_V3        -1.864E-02
    X_U2.vb     -4.804E-07
    X_U2.vc      5.430E-12
    X_U2.ve      2.235E-11
    X_U2.vlim    9.814E-04
    X_U2.vlp    -2.102E-11
    X_U2.vln    -2.298E-11
    X_U3.vb     -5.773E-08
    X_U3.vc      1.201E-11
    X_U3.ve      1.577E-11
    X_U3.vlim   -9.811E-04
    X_U3.vlp    -2.298E-11
    X_U3.vln    -2.102E-11
    X_U4.vb     -5.080E-07
    X_U4.vc      5.007E-12
    X_U4.ve      2.277E-11
    X_U4.vlim    1.193E-03
    X_U4.vlp    -2.081E-11
    X_U4.vln    -2.319E-11
    X_U5.vb     -1.469E-03
    X_U5.vc      1.988E-12
    X_U5.ve      2.579E-11
    X_U5.vlim    2.273E-02
    X_U5.vlp     1.557E-03
    X_U5.vln    -4.474E-11
    X_U6.vb     -6.745E-07
    X_U6.vc      2.264E-12
    X_U6.ve      2.552E-11
    X_U6.vlim   -5.202E-05
    X_U6.vlp    -2.205E-11
    X_U6.vln    -2.195E-11

    TOTAL POWER DISSIPATION   1.72E+01  WATTS


**** 07/03/23 18:54:54 **** PSpice 22.1.0 (6 October 2022) **** ID# 0 ********

 ** Profile: "SCHEMATIC1-sim_MontCarl"  [ C:\Users\maria\OneDrive - Technical University of Cluj-Napoca\Desktop\PROIECT_CAD_UwU\Nasca


 ****     INITIAL TRANSIENT SOLUTION       TEMPERATURE =   27.000 DEG C

                      MONTE CARLO PASS 12

******************************************************************************



 NODE   VOLTAGE     NODE   VOLTAGE     NODE   VOLTAGE     NODE   VOLTAGE


(  OUT)    1.0508  ( +VCC)   15.0000  ( -VCC)  -15.0000  ( OUT2)   11.0420      

( VREF)    7.5677  (VREF2)   10.7520  (N14397)   14.5000 (N14486)    8.0288     

(N15621)    8.0287 (N15935)    7.5678 (N16344)    5.6274 (N16580)    5.6273     

(N18090)   10.7520 (N18284)   10.8070 (N18859)   15.0000 (N18863)   11.7420     

(N20012)     .8603 (N20016)     .0108 (N20331)    6.0091 (X_U2.6)    -.0480     

(X_U2.7)    7.6164 (X_U2.8)    7.6164 (X_U2.9)    0.0000 (X_U3.6)    -.0061     

(X_U3.7)    1.0021 (X_U3.8)    1.0021 (X_U3.9)    0.0000 (X_U4.6)    -.0510     

(X_U4.7)    8.0886 (X_U4.8)    8.0886 (X_U4.9)    0.0000 (X_U5.6) -146.8900     

(X_U5.7)   12.1790 (X_U5.8)   12.1790 (X_U5.9)    0.0000 (X_U6.6)    -.0675     

(X_U6.7)   10.7500 (X_U6.8)   10.7500 (X_U6.9)    0.0000 (N198520)    3.1341    

(N204421)    3.5338                   (X_U2.10)    6.8248                       

(X_U2.11)   14.9420                   (X_U2.12)   14.9420                       

(X_U2.13)    6.8557                   (X_U2.14)    6.8557                       

(X_U2.53)   13.0000                   (X_U2.54)  -13.0000                       

(X_U2.90)     .9751                   (X_U2.91)   22.0000                       

(X_U2.92)  -22.0000                   (X_U2.99)    0.0000                       

(X_U3.10)    4.8850                   (X_U3.11)   14.9430                       

(X_U3.12)   14.9430                   (X_U3.13)    4.9155                       

(X_U3.14)    4.9156                   (X_U3.53)   13.0000                       

(X_U3.54)  -13.0000                   (X_U3.90)    -.9749                       

(X_U3.91)   22.0000                   (X_U3.92)  -22.0000                       

(X_U3.99)    0.0000                   (X_U4.10)    7.2857                       

(X_U4.11)   14.9420                   (X_U4.12)   14.9420                       

(X_U4.13)    7.3166                   (X_U4.14)    7.3167                       

(X_U4.53)   13.0000                   (X_U4.54)  -13.0000                       

(X_U4.90)    1.1976                   (X_U4.91)   22.0000                       

(X_U4.92)  -22.0000                   (X_U4.99)    0.0000                       

(X_U5.10)   10.0140                   (X_U5.11)   15.0000                       

(X_U5.12)   14.8830                   (X_U5.13)   10.0140                       

(X_U5.14)   10.0760                   (X_U5.53)   13.0000                       

(X_U5.54)  -13.0000                   (X_U5.90)   22.7330                       

(X_U5.91)   22.0000                   (X_U5.92)  -22.0000                       

(X_U5.99)    0.0000                   (X_U6.10)   10.0090                       

(X_U6.11)   14.9420                   (X_U6.12)   14.9410                       

(X_U6.13)   10.0400                   (X_U6.14)   10.0400                       

(X_U6.53)   13.0000                   (X_U6.54)  -13.0000                       

(X_U6.90)    -.0546                   (X_U6.91)   22.0000                       

(X_U6.92)  -22.0000                   (X_U6.99)    0.0000                   




    VOLTAGE SOURCE CURRENTS
    NAME         CURRENT

    V_V1        -1.109E+00
    V_V2         2.250E-02
    V_V3        -1.864E-02
    X_U2.vb     -4.802E-07
    X_U2.vc      5.433E-12
    X_U2.ve      2.235E-11
    X_U2.vlim    9.751E-04
    X_U2.vlp    -2.103E-11
    X_U2.vln    -2.298E-11
    X_U3.vb     -6.144E-08
    X_U3.vc      1.195E-11
    X_U3.ve      1.583E-11
    X_U3.vlim   -9.749E-04
    X_U3.vlp    -2.298E-11
    X_U3.vln    -2.103E-11
    X_U4.vb     -5.102E-07
    X_U4.vc      4.972E-12
    X_U4.ve      2.281E-11
    X_U4.vlim    1.198E-03
    X_U4.vlp    -2.080E-11
    X_U4.vln    -2.320E-11
    X_U5.vb     -1.469E-03
    X_U5.vc      1.958E-12
    X_U5.ve      2.582E-11
    X_U5.vlim    2.273E-02
    X_U5.vlp     1.557E-03
    X_U5.vln    -4.474E-11
    X_U6.vb     -6.755E-07
    X_U6.vc      2.249E-12
    X_U6.ve      2.553E-11
    X_U6.vlim   -5.460E-05
    X_U6.vlp    -2.206E-11
    X_U6.vln    -2.195E-11

    TOTAL POWER DISSIPATION   1.72E+01  WATTS


**** 07/03/23 18:54:54 **** PSpice 22.1.0 (6 October 2022) **** ID# 0 ********

 ** Profile: "SCHEMATIC1-sim_MontCarl"  [ C:\Users\maria\OneDrive - Technical University of Cluj-Napoca\Desktop\PROIECT_CAD_UwU\Nasca


 ****     INITIAL TRANSIENT SOLUTION       TEMPERATURE =   27.000 DEG C

                      MONTE CARLO PASS 13

******************************************************************************



 NODE   VOLTAGE     NODE   VOLTAGE     NODE   VOLTAGE     NODE   VOLTAGE


(  OUT)    1.0976  ( +VCC)   15.0000  ( -VCC)  -15.0000  ( OUT2)   11.0330      

( VREF)    7.5806  (VREF2)   10.7600  (N14397)   14.5000 (N14486)    8.0256     

(N15621)    8.0254 (N15935)    7.5807 (N16344)    5.6379 (N16580)    5.6378     

(N18090)   10.7600 (N18284)   10.8120 (N18859)   15.0000 (N18863)   11.7420     

(N20012)     .8603 (N20016)     .0109 (N20331)    6.0031 (X_U2.6)    -.0481     

(X_U2.7)    7.6290 (X_U2.8)    7.6290 (X_U2.9)    0.0000 (X_U3.6)    -.0064     

(X_U3.7)    1.0492 (X_U3.8)    1.0492 (X_U3.9)    0.0000 (X_U4.6)    -.0510     

(X_U4.7)    8.0854 (X_U4.8)    8.0854 (X_U4.9)    0.0000 (X_U5.6) -146.8900     

(X_U5.7)   12.1700 (X_U5.8)   12.1700 (X_U5.9)    0.0000 (X_U6.6)    -.0676     

(X_U6.7)   10.7570 (X_U6.8)   10.7570 (X_U6.9)    0.0000 (N198520)    3.1341    

(N204421)    3.5431                   (X_U2.10)    6.8377                       

(X_U2.11)   14.9420                   (X_U2.12)   14.9420                       

(X_U2.13)    6.8685                   (X_U2.14)    6.8686                       

(X_U2.53)   13.0000                   (X_U2.54)  -13.0000                       

(X_U2.90)     .9675                   (X_U2.91)   22.0000                       

(X_U2.92)  -22.0000                   (X_U2.99)    0.0000                       

(X_U3.10)    4.8955                   (X_U3.11)   14.9430                       

(X_U3.12)   14.9430                   (X_U3.13)    4.9260                       

(X_U3.14)    4.9260                   (X_U3.53)   13.0000                       

(X_U3.54)  -13.0000                   (X_U3.90)    -.9673                       

(X_U3.91)   22.0000                   (X_U3.92)  -22.0000                       

(X_U3.99)    0.0000                   (X_U4.10)    7.2825                       

(X_U4.11)   14.9420                   (X_U4.12)   14.9420                       

(X_U4.13)    7.3133                   (X_U4.14)    7.3134                       

(X_U4.53)   13.0000                   (X_U4.54)  -13.0000                       

(X_U4.90)    1.1998                   (X_U4.91)   22.0000                       

(X_U4.92)  -22.0000                   (X_U4.99)    0.0000                       

(X_U5.10)   10.0190                   (X_U5.11)   15.0000                       

(X_U5.12)   14.8830                   (X_U5.13)   10.0190                       

(X_U5.14)   10.0810                   (X_U5.53)   13.0000                       

(X_U5.54)  -13.0000                   (X_U5.90)   22.7330                       

(X_U5.91)   22.0000                   (X_U5.92)  -22.0000                       

(X_U5.99)    0.0000                   (X_U6.10)   10.0160                       

(X_U6.11)   14.9420                   (X_U6.12)   14.9410                       

(X_U6.13)   10.0470                   (X_U6.14)   10.0480                       

(X_U6.53)   13.0000                   (X_U6.54)  -13.0000                       

(X_U6.90)    -.0516                   (X_U6.91)   22.0000                       

(X_U6.92)  -22.0000                   (X_U6.99)    0.0000                   




    VOLTAGE SOURCE CURRENTS
    NAME         CURRENT

    V_V1        -1.108E+00
    V_V2         2.250E-02
    V_V3        -1.864E-02
    X_U2.vb     -4.810E-07
    X_U2.vc      5.420E-12
    X_U2.ve      2.236E-11
    X_U2.vlim    9.675E-04
    X_U2.vlp    -2.103E-11
    X_U2.vln    -2.297E-11
    X_U3.vb     -6.442E-08
    X_U3.vc      1.190E-11
    X_U3.ve      1.588E-11
    X_U3.vlim   -9.673E-04
    X_U3.vlp    -2.297E-11
    X_U3.vln    -2.103E-11
    X_U4.vb     -5.100E-07
    X_U4.vc      4.975E-12
    X_U4.ve      2.281E-11
    X_U4.vlim    1.200E-03
    X_U4.vlp    -2.080E-11
    X_U4.vln    -2.320E-11
    X_U5.vb     -1.469E-03
    X_U5.vc      1.967E-12
    X_U5.ve      2.581E-11
    X_U5.vlim    2.273E-02
    X_U5.vlp     1.557E-03
    X_U5.vln    -4.474E-11
    X_U6.vb     -6.760E-07
    X_U6.vc      2.241E-12
    X_U6.ve      2.554E-11
    X_U6.vlim   -5.158E-05
    X_U6.vlp    -2.205E-11
    X_U6.vln    -2.195E-11

    TOTAL POWER DISSIPATION   1.72E+01  WATTS


**** 07/03/23 18:54:54 **** PSpice 22.1.0 (6 October 2022) **** ID# 0 ********

 ** Profile: "SCHEMATIC1-sim_MontCarl"  [ C:\Users\maria\OneDrive - Technical University of Cluj-Napoca\Desktop\PROIECT_CAD_UwU\Nasca


 ****     INITIAL TRANSIENT SOLUTION       TEMPERATURE =   27.000 DEG C

                      MONTE CARLO PASS 14

******************************************************************************



 NODE   VOLTAGE     NODE   VOLTAGE     NODE   VOLTAGE     NODE   VOLTAGE


(  OUT)    1.0307  ( +VCC)   15.0000  ( -VCC)  -15.0000  ( OUT2)   11.0480      

( VREF)    7.5859  (VREF2)   10.7360  (N14397)   14.5000 (N14486)    8.0212     

(N15621)    8.0210 (N15935)    7.5860 (N16344)    5.6266 (N16580)    5.6265     

(N18090)   10.7360 (N18284)   10.7950 (N18859)   15.0000 (N18863)   11.7420     

(N20012)     .8605 (N20016)     .0108 (N20331)    5.9952 (X_U2.6)    -.0481     

(X_U2.7)    7.6348 (X_U2.8)    7.6348 (X_U2.9)    0.0000 (X_U3.6)    -.0060     

(X_U3.7)     .9818 (X_U3.8)     .9818 (X_U3.9)    0.0000 (X_U4.6)    -.0510     

(X_U4.7)    8.0809 (X_U4.8)    8.0809 (X_U4.9)    0.0000 (X_U5.6) -146.8800     

(X_U5.7)   12.1840 (X_U5.8)   12.1840 (X_U5.9)    0.0000 (X_U6.6)    -.0674     

(X_U6.7)   10.7330 (X_U6.8)   10.7330 (X_U6.9)    0.0000 (N198520)    3.1338    

(N204421)    3.5399                   (X_U2.10)    6.8431                       

(X_U2.11)   14.9420                   (X_U2.12)   14.9420                       

(X_U2.13)    6.8739                   (X_U2.14)    6.8739                       

(X_U2.53)   13.0000                   (X_U2.54)  -13.0000                       

(X_U2.90)     .9779                   (X_U2.91)   22.0000                       

(X_U2.92)  -22.0000                   (X_U2.99)    0.0000                       

(X_U3.10)    4.8842                   (X_U3.11)   14.9430                       

(X_U3.12)   14.9430                   (X_U3.13)    4.9147                       

(X_U3.14)    4.9148                   (X_U3.53)   13.0000                       

(X_U3.54)  -13.0000                   (X_U3.90)    -.9777                       

(X_U3.91)   22.0000                   (X_U3.92)  -22.0000                       

(X_U3.99)    0.0000                   (X_U4.10)    7.2781                       

(X_U4.11)   14.9420                   (X_U4.12)   14.9420                       

(X_U4.13)    7.3089                   (X_U4.14)    7.3090                       

(X_U4.53)   13.0000                   (X_U4.54)  -13.0000                       

(X_U4.90)    1.1974                   (X_U4.91)   22.0000                       

(X_U4.92)  -22.0000                   (X_U4.99)    0.0000                       

(X_U5.10)   10.0020                   (X_U5.11)   15.0000                       

(X_U5.12)   14.8830                   (X_U5.13)   10.0020                       

(X_U5.14)   10.0640                   (X_U5.53)   13.0000                       

(X_U5.54)  -13.0000                   (X_U5.90)   22.7330                       

(X_U5.91)   22.0000                   (X_U5.92)  -22.0000                       

(X_U5.99)    0.0000                   (X_U6.10)    9.9922                       

(X_U6.11)   14.9420                   (X_U6.12)   14.9410                       

(X_U6.13)   10.0230                   (X_U6.14)   10.0240                       

(X_U6.53)   13.0000                   (X_U6.54)  -13.0000                       

(X_U6.90)    -.0587                   (X_U6.91)   22.0000                       

(X_U6.92)  -22.0000                   (X_U6.99)    0.0000                   




    VOLTAGE SOURCE CURRENTS
    NAME         CURRENT

    V_V1        -1.106E+00
    V_V2         2.250E-02
    V_V3        -1.864E-02
    X_U2.vb     -4.813E-07
    X_U2.vc      5.415E-12
    X_U2.ve      2.237E-11
    X_U2.vlim    9.779E-04
    X_U2.vlp    -2.102E-11
    X_U2.vln    -2.298E-11
    X_U3.vb     -6.016E-08
    X_U3.vc      1.197E-11
    X_U3.ve      1.581E-11
    X_U3.vlim   -9.777E-04
    X_U3.vlp    -2.298E-11
    X_U3.vln    -2.102E-11
    X_U4.vb     -5.097E-07
    X_U4.vc      4.980E-12
    X_U4.ve      2.280E-11
    X_U4.vlim    1.197E-03
    X_U4.vlp    -2.080E-11
    X_U4.vln    -2.320E-11
    X_U5.vb     -1.469E-03
    X_U5.vc      1.953E-12
    X_U5.ve      2.583E-11
    X_U5.vlim    2.273E-02
    X_U5.vlp     1.557E-03
    X_U5.vln    -4.474E-11
    X_U6.vb     -6.744E-07
    X_U6.vc      2.265E-12
    X_U6.ve      2.552E-11
    X_U6.vlim   -5.874E-05
    X_U6.vlp    -2.206E-11
    X_U6.vln    -2.194E-11

    TOTAL POWER DISSIPATION   1.72E+01  WATTS


**** 07/03/23 18:54:54 **** PSpice 22.1.0 (6 October 2022) **** ID# 0 ********

 ** Profile: "SCHEMATIC1-sim_MontCarl"  [ C:\Users\maria\OneDrive - Technical University of Cluj-Napoca\Desktop\PROIECT_CAD_UwU\Nasca


 ****     INITIAL TRANSIENT SOLUTION       TEMPERATURE =   27.000 DEG C

                      MONTE CARLO PASS 15

******************************************************************************



 NODE   VOLTAGE     NODE   VOLTAGE     NODE   VOLTAGE     NODE   VOLTAGE


(  OUT)    1.2602  ( +VCC)   15.0000  ( -VCC)  -15.0000  ( OUT2)   11.0210      

( VREF)    7.5634  (VREF2)   10.7120  (N14397)   14.5000 (N14486)    8.1020     

(N15621)    8.1019 (N15935)    7.5635 (N16344)    5.6779 (N16580)    5.6778     

(N18090)   10.7120 (N18284)   10.7710 (N18859)   15.0000 (N18863)   11.7420     

(N20012)     .8608 (N20016)     .0109 (N20331)    5.9842 (X_U2.6)    -.0480     

(X_U2.7)    7.6105 (X_U2.8)    7.6105 (X_U2.9)    0.0000 (X_U3.6)    -.0075     

(X_U3.7)    1.2131 (X_U3.8)    1.2131 (X_U3.9)    0.0000 (X_U4.6)    -.0515     

(X_U4.7)    8.1623 (X_U4.8)    8.1623 (X_U4.9)    0.0000 (X_U5.6) -146.8700     

(X_U5.7)   12.1570 (X_U5.8)   12.1570 (X_U5.9)    0.0000 (X_U6.6)    -.0673     

(X_U6.7)   10.7090 (X_U6.8)   10.7090 (X_U6.9)    0.0000 (N198520)    3.1331    

(N204421)    3.5602                   (X_U2.10)    6.8205                       

(X_U2.11)   14.9420                   (X_U2.12)   14.9420                       

(X_U2.13)    6.8514                   (X_U2.14)    6.8514                       

(X_U2.53)   13.0000                   (X_U2.54)  -13.0000                       

(X_U2.90)     .9420                   (X_U2.91)   22.0000                       

(X_U2.92)  -22.0000                   (X_U2.99)    0.0000                       

(X_U3.10)    4.9355                   (X_U3.11)   14.9430                       

(X_U3.12)   14.9430                   (X_U3.13)    4.9660                       

(X_U3.14)    4.9660                   (X_U3.53)   13.0000                       

(X_U3.54)  -13.0000                   (X_U3.90)    -.9418                       

(X_U3.91)   22.0000                   (X_U3.92)  -22.0000                       

(X_U3.99)    0.0000                   (X_U4.10)    7.3589                       

(X_U4.11)   14.9420                   (X_U4.12)   14.9420                       

(X_U4.13)    7.3898                   (X_U4.14)    7.3899                       

(X_U4.53)   13.0000                   (X_U4.54)  -13.0000                       

(X_U4.90)    1.2083                   (X_U4.91)   22.0000                       

(X_U4.92)  -22.0000                   (X_U4.99)    0.0000                       

(X_U5.10)    9.9776                   (X_U5.11)   15.0000                       

(X_U5.12)   14.8830                   (X_U5.13)    9.9776                       

[...]

(X_U4.11)   14.9420                   (X_U4.12)   14.9420                       

(X_U4.13)    7.3463                   (X_U4.14)    7.3463                       

(X_U4.53)   13.0000                   (X_U4.54)  -13.0000                       

(X_U4.90)    1.2036                   (X_U4.91)   22.0000                       

(X_U4.92)  -22.0000                   (X_U4.99)    0.0000                       

(X_U5.10)    9.9954                   (X_U5.11)   15.0000                       

(X_U5.12)   14.8830                   (X_U5.13)    9.9954                       

(X_U5.14)   10.0580                   (X_U5.53)   13.0000                       

(X_U5.54)  -13.0000                   (X_U5.90)   22.7330                       

(X_U5.91)   22.0000                   (X_U5.92)  -22.0000                       

(X_U5.99)    0.0000                   (X_U6.10)    9.9865                       

(X_U6.11)   14.9420                   (X_U6.12)   14.9410                       

(X_U6.13)   10.0180                   (X_U6.14)   10.0180                       

(X_U6.53)   13.0000                   (X_U6.54)  -13.0000                       

(X_U6.90)    -.0581                   (X_U6.91)   22.0000                       

(X_U6.92)  -22.0000                   (X_U6.99)    0.0000                   




    VOLTAGE SOURCE CURRENTS
    NAME         CURRENT

    V_V1        -1.110E+00
    V_V2         2.250E-02
    V_V3        -1.864E-02
    X_U2.vb     -4.799E-07
    X_U2.vc      5.436E-12
    X_U2.ve      2.235E-11
    X_U2.vlim    9.503E-04
    X_U2.vlp    -2.105E-11
    X_U2.vln    -2.295E-11
    X_U3.vb     -7.155E-08
    X_U3.vc      1.179E-11
    X_U3.ve      1.599E-11
    X_U3.vlim   -9.501E-04
    X_U3.vlp    -2.295E-11
    X_U3.vln    -2.105E-11
    X_U4.vb     -5.121E-07
    X_U4.vc      4.942E-12
    X_U4.ve      2.284E-11
    X_U4.vlim    1.204E-03
    X_U4.vlp    -2.080E-11
    X_U4.vln    -2.321E-11
    X_U5.vb     -1.469E-03
    X_U5.vc      1.963E-12
    X_U5.ve      2.582E-11
    X_U5.vlim    2.273E-02
    X_U5.vlp     1.557E-03
    X_U5.vln    -4.474E-11
    X_U6.vb     -6.741E-07
    X_U6.vc      2.271E-12
    X_U6.ve      2.551E-11
    X_U6.vlim   -5.807E-05
    X_U6.vlp    -2.206E-11
    X_U6.vln    -2.194E-11

    TOTAL POWER DISSIPATION   1.72E+01  WATTS


**** 07/03/23 18:54:54 **** PSpice 22.1.0 (6 October 2022) **** ID# 0 ********

 ** Profile: "SCHEMATIC1-sim_MontCarl"  [ C:\Users\maria\OneDrive - Technical University of Cluj-Napoca\Desktop\PROIECT_CAD_UwU\Nasca


 ****     INITIAL TRANSIENT SOLUTION       TEMPERATURE =   27.000 DEG C

                      MONTE CARLO PASS 18

******************************************************************************



 NODE   VOLTAGE     NODE   VOLTAGE     NODE   VOLTAGE     NODE   VOLTAGE


(  OUT)    1.1337  ( +VCC)   15.0000  ( -VCC)  -15.0000  ( OUT2)   11.0480      

( VREF)    7.5633  (VREF2)   10.7280  (N14397)   14.5000 (N14486)    8.0498     

(N15621)    8.0497 (N15935)    7.5634 (N16344)    5.6434 (N16580)    5.6433     

(N18090)   10.7280 (N18284)   10.7890 (N18859)   15.0000 (N18863)   11.7420     

(N20012)     .8603 (N20016)     .0108 (N20331)    6.0024 (X_U2.6)    -.0480     

(X_U2.7)    7.6115 (X_U2.8)    7.6115 (X_U2.9)    0.0000 (X_U3.6)    -.0067     

(X_U3.7)    1.0855 (X_U3.8)    1.0855 (X_U3.9)    0.0000 (X_U4.6)    -.0512     

(X_U4.7)    8.1098 (X_U4.8)    8.1098 (X_U4.9)    0.0000 (X_U5.6) -146.8800     

(X_U5.7)   12.1850 (X_U5.8)   12.1850 (X_U5.9)    0.0000 (X_U6.6)    -.0674     

(X_U6.7)   10.7250 (X_U6.8)   10.7250 (X_U6.9)    0.0000 (N198520)    3.1341    

(N204421)    3.5554                   (X_U2.10)    6.8204                       

(X_U2.11)   14.9420                   (X_U2.12)   14.9420                       

(X_U2.13)    6.8512                   (X_U2.14)    6.8513                       

(X_U2.53)   13.0000                   (X_U2.54)  -13.0000                       

(X_U2.90)     .9642                   (X_U2.91)   22.0000                       

(X_U2.92)  -22.0000                   (X_U2.99)    0.0000                       

(X_U3.10)    4.9010                   (X_U3.11)   14.9430                       

(X_U3.12)   14.9430                   (X_U3.13)    4.9315                       

(X_U3.14)    4.9316                   (X_U3.53)   13.0000                       

(X_U3.54)  -13.0000                   (X_U3.90)    -.9639                       

(X_U3.91)   22.0000                   (X_U3.92)  -22.0000                       

(X_U3.99)    0.0000                   (X_U4.10)    7.3067                       

(X_U4.11)   14.9420                   (X_U4.12)   14.9420                       

(X_U4.13)    7.3376                   (X_U4.14)    7.3377                       

(X_U4.53)   13.0000                   (X_U4.54)  -13.0000                       

(X_U4.90)    1.2010                   (X_U4.91)   22.0000                       

(X_U4.92)  -22.0000                   (X_U4.99)    0.0000                       

(X_U5.10)    9.9958                   (X_U5.11)   15.0000                       

(X_U5.12)   14.8830                   (X_U5.13)    9.9958                       

(X_U5.14)   10.0580                   (X_U5.53)   13.0000                       

(X_U5.54)  -13.0000                   (X_U5.90)   22.7330                       

(X_U5.91)   22.0000                   (X_U5.92)  -22.0000                       

(X_U5.99)    0.0000                   (X_U6.10)    9.9846                       

(X_U6.11)   14.9420                   (X_U6.12)   14.9410                       

(X_U6.13)   10.0160                   (X_U6.14)   10.0160                       

(X_U6.53)   13.0000                   (X_U6.54)  -13.0000                       

(X_U6.90)    -.0604                   (X_U6.91)   22.0000                       

(X_U6.92)  -22.0000                   (X_U6.99)    0.0000                   




    VOLTAGE SOURCE CURRENTS
    NAME         CURRENT

    V_V1        -1.109E+00
    V_V2         2.250E-02
    V_V3        -1.864E-02
    X_U2.vb     -4.799E-07
    X_U2.vc      5.438E-12
    X_U2.ve      2.234E-11
    X_U2.vlim    9.642E-04
    X_U2.vlp    -2.104E-11
    X_U2.vln    -2.297E-11
    X_U3.vb     -6.670E-08
    X_U3.vc      1.187E-11
    X_U3.ve      1.591E-11
    X_U3.vlim   -9.639E-04
    X_U3.vlp    -2.296E-11
    X_U3.vln    -2.104E-11
    X_U4.vb     -5.115E-07
    X_U4.vc      4.951E-12
    X_U4.ve      2.283E-11
    X_U4.vlim    1.201E-03
    X_U4.vlp    -2.080E-11
    X_U4.vln    -2.320E-11
    X_U5.vb     -1.469E-03
    X_U5.vc      1.953E-12
    X_U5.ve      2.583E-11
    X_U5.vlim    2.273E-02
    X_U5.vlp     1.557E-03
    X_U5.vln    -4.474E-11
    X_U6.vb     -6.739E-07
    X_U6.vc      2.273E-12
    X_U6.ve      2.551E-11
    X_U6.vlim   -6.043E-05
    X_U6.vlp    -2.206E-11
    X_U6.vln    -2.194E-11

    TOTAL POWER DISSIPATION   1.72E+01  WATTS


**** 07/03/23 18:54:54 **** PSpice 22.1.0 (6 October 2022) **** ID# 0 ********

 ** Profile: "SCHEMATIC1-sim_MontCarl"  [ C:\Users\maria\OneDrive - Technical University of Cluj-Napoca\Desktop\PROIECT_CAD_UwU\Nasca


 ****     INITIAL TRANSIENT SOLUTION       TEMPERATURE =   27.000 DEG C

                      MONTE CARLO PASS 19

******************************************************************************



 NODE   VOLTAGE     NODE   VOLTAGE     NODE   VOLTAGE     NODE   VOLTAGE


(  OUT)    1.2777  ( +VCC)   15.0000  ( -VCC)  -15.0000  ( OUT2)   11.0180      

( VREF)    7.5605  (VREF2)   10.7240  (N14397)   14.5000 (N14486)    8.0847     

(N15621)    8.0846 (N15935)    7.5607 (N16344)    5.6743 (N16580)    5.6743     

(N18090)   10.7240 (N18284)   10.7800 (N18859)   15.0000 (N18863)   11.7420     

(N20012)     .8610 (N20016)     .0109 (N20331)    5.9853 (X_U2.6)    -.0480     

(X_U2.7)    7.6075 (X_U2.8)    7.6075 (X_U2.9)    0.0000 (X_U3.6)    -.0076     

(X_U3.7)    1.2308 (X_U3.8)    1.2308 (X_U3.9)    0.0000 (X_U4.6)    -.0514     

(X_U4.7)    8.1450 (X_U4.8)    8.1450 (X_U4.9)    0.0000 (X_U5.6) -146.8700     

(X_U5.7)   12.1540 (X_U5.8)   12.1540 (X_U5.9)    0.0000 (X_U6.6)    -.0674     

(X_U6.7)   10.7210 (X_U6.8)   10.7210 (X_U6.9)    0.0000 (N198520)    3.1330    

(N204421)    3.5711                   (X_U2.10)    6.8177                       

(X_U2.11)   14.9420                   (X_U2.12)   14.9420                       

(X_U2.13)    6.8485                   (X_U2.14)    6.8486                       

(X_U2.53)   13.0000                   (X_U2.54)  -13.0000                       

(X_U2.90)     .9396                   (X_U2.91)   22.0000                       

(X_U2.92)  -22.0000                   (X_U2.99)    0.0000                       

(X_U3.10)    4.9319                   (X_U3.11)   14.9430                       

(X_U3.12)   14.9430                   (X_U3.13)    4.9624                       

(X_U3.14)    4.9625                   (X_U3.53)   13.0000                       

(X_U3.54)  -13.0000                   (X_U3.90)    -.9394                       

(X_U3.91)   22.0000                   (X_U3.92)  -22.0000                       

(X_U3.99)    0.0000                   (X_U4.10)    7.3416                       

(X_U4.11)   14.9420                   (X_U4.12)   14.9420                       

(X_U4.13)    7.3725                   (X_U4.14)    7.3726                       

(X_U4.53)   13.0000                   (X_U4.54)  -13.0000                       

(X_U4.90)    1.2075                   (X_U4.91)   22.0000                       

(X_U4.92)  -22.0000                   (X_U4.99)    0.0000                       

(X_U5.10)    9.9869                   (X_U5.11)   15.0000                       

(X_U5.12)   14.8830                   (X_U5.13)    9.9869                       

(X_U5.14)   10.0500                   (X_U5.53)   13.0000                       

(X_U5.54)  -13.0000                   (X_U5.90)   22.7330                       

(X_U5.91)   22.0000                   (X_U5.92)  -22.0000                       

(X_U5.99)    0.0000                   (X_U6.10)    9.9804                       

(X_U6.11)   14.9420                   (X_U6.12)   14.9410                       

(X_U6.13)   10.0120                   (X_U6.14)   10.0120                       

(X_U6.53)   13.0000                   (X_U6.54)  -13.0000                       

(X_U6.90)    -.0554                   (X_U6.91)   22.0000                       

(X_U6.92)  -22.0000                   (X_U6.99)    0.0000                   




    VOLTAGE SOURCE CURRENTS
    NAME         CURRENT

    V_V1        -1.108E+00
    V_V2         2.250E-02
    V_V3        -1.864E-02
    X_U2.vb     -4.796E-07
    X_U2.vc      5.440E-12
    X_U2.ve      2.234E-11
    X_U2.vlim    9.396E-04
    X_U2.vlp    -2.106E-11
    X_U2.vln    -2.294E-11
    X_U3.vb     -7.587E-08
    X_U3.vc      1.172E-11
    X_U3.ve      1.606E-11
    X_U3.vlim   -9.394E-04
    X_U3.vlp    -2.294E-11
    X_U3.vln    -2.106E-11
    X_U4.vb     -5.138E-07
    X_U4.vc      4.916E-12
    X_U4.ve      2.286E-11
    X_U4.vlim    1.208E-03
    X_U4.vlp    -2.079E-11
    X_U4.vln    -2.321E-11
    X_U5.vb     -1.469E-03
    X_U5.vc      1.983E-12
    X_U5.ve      2.580E-11
    X_U5.vlim    2.273E-02
    X_U5.vlp     1.557E-03
    X_U5.vln    -4.474E-11
    X_U6.vb     -6.737E-07
    X_U6.vc      2.277E-12
    X_U6.ve      2.550E-11
    X_U6.vlim   -5.542E-05
    X_U6.vlp    -2.206E-11
    X_U6.vln    -2.195E-11

    TOTAL POWER DISSIPATION   1.72E+01  WATTS


**** 07/03/23 18:54:54 **** PSpice 22.1.0 (6 October 2022) **** ID# 0 ********

 ** Profile: "SCHEMATIC1-sim_MontCarl"  [ C:\Users\maria\OneDrive - Technical University of Cluj-Napoca\Desktop\PROIECT_CAD_UwU\Nasca


 ****     INITIAL TRANSIENT SOLUTION       TEMPERATURE =   27.000 DEG C

                      MONTE CARLO PASS 20

******************************************************************************



 NODE   VOLTAGE     NODE   VOLTAGE     NODE   VOLTAGE     NODE   VOLTAGE


(  OUT)    1.1573  ( +VCC)   15.0000  ( -VCC)  -15.0000  ( OUT2)   11.0340      

( VREF)    7.5451  (VREF2)   10.7480  (N14397)   14.5000 (N14486)    8.0292     

(N15621)    8.0291 (N15935)    7.5452 (N16344)    5.6372 (N16580)    5.6371     

(N18090)   10.7480 (N18284)   10.8020 (N18859)   15.0000 (N18863)   11.7420     

(N20012)     .8606 (N20016)     .0109 (N20331)    5.9969 (X_U2.6)    -.0479     

(X_U2.7)    7.5928 (X_U2.8)    7.5928 (X_U2.9)    0.0000 (X_U3.6)    -.0068     

(X_U3.7)    1.1097 (X_U3.8)    1.1097 (X_U3.9)    0.0000 (X_U4.6)    -.0510     

(X_U4.7)    8.0891 (X_U4.8)    8.0891 (X_U4.9)    0.0000 (X_U5.6) -146.8900     

(X_U5.7)   12.1710 (X_U5.8)   12.1710 (X_U5.9)    0.0000 (X_U6.6)    -.0675     

(X_U6.7)   10.7460 (X_U6.8)   10.7460 (X_U6.9)    0.0000 (N198520)    3.1336    

(N204421)    3.5447                   (X_U2.10)    6.8023                       

(X_U2.11)   14.9420                   (X_U2.12)   14.9420                       

(X_U2.13)    6.8331                   (X_U2.14)    6.8331                       

(X_U2.53)   13.0000                   (X_U2.54)  -13.0000                       

(X_U2.90)     .9532                   (X_U2.91)   22.0000                       

(X_U2.92)  -22.0000                   (X_U2.99)    0.0000                       

(X_U3.10)    4.8948                   (X_U3.11)   14.9430                       

(X_U3.12)   14.9430                   (X_U3.13)    4.9253                       

(X_U3.14)    4.9253                   (X_U3.53)   13.0000                       

(X_U3.54)  -13.0000                   (X_U3.90)    -.9530                       

(X_U3.91)   22.0000                   (X_U3.92)  -22.0000                       

(X_U3.99)    0.0000                   (X_U4.10)    7.2861                       

(X_U4.11)   14.9420                   (X_U4.12)   14.9420                       

(X_U4.13)    7.3170                   (X_U4.14)    7.3171                       

(X_U4.53)   13.0000                   (X_U4.54)  -13.0000                       

(X_U4.90)    1.1996                   (X_U4.91)   22.0000                       

(X_U4.92)  -22.0000                   (X_U4.99)    0.0000                       

(X_U5.10)   10.0090                   (X_U5.11)   15.0000                       

(X_U5.12)   14.8830                   (X_U5.13)   10.0090                       

(X_U5.14)   10.0720                   (X_U5.53)   13.0000                       

(X_U5.54)  -13.0000                   (X_U5.90)   22.7330                       

(X_U5.91)   22.0000                   (X_U5.92)  -22.0000                       

(X_U5.99)    0.0000                   (X_U6.10)   10.0050                       

(X_U6.11)   14.9420                   (X_U6.12)   14.9410                       

(X_U6.13)   10.0360                   (X_U6.14)   10.0360                       

(X_U6.53)   13.0000                   (X_U6.54)  -13.0000                       

(X_U6.90)    -.0542                   (X_U6.91)   22.0000                       

(X_U6.92)  -22.0000                   (X_U6.99)    0.0000                   




    VOLTAGE SOURCE CURRENTS
    NAME         CURRENT

    V_V1        -1.109E+00
    V_V2         2.250E-02
    V_V3        -1.864E-02
    X_U2.vb     -4.787E-07
    X_U2.vc      5.456E-12
    X_U2.ve      2.233E-11
    X_U2.vlim    9.532E-04
    X_U2.vlp    -2.105E-11
    X_U2.vln    -2.296E-11
    X_U3.vb     -6.824E-08
    X_U3.vc      1.184E-11
    X_U3.ve      1.594E-11
    X_U3.vlim   -9.530E-04
    X_U3.vlp    -2.295E-11
    X_U3.vln    -2.105E-11
    X_U4.vb     -5.102E-07
    X_U4.vc      4.972E-12
    X_U4.ve      2.281E-11
    X_U4.vlim    1.200E-03
    X_U4.vlp    -2.080E-11
    X_U4.vln    -2.320E-11
    X_U5.vb     -1.469E-03
    X_U5.vc      1.967E-12
    X_U5.ve      2.581E-11
    X_U5.vlim    2.273E-02
    X_U5.vlp     1.557E-03
    X_U5.vln    -4.474E-11
    X_U6.vb     -6.752E-07
    X_U6.vc      2.253E-12
    X_U6.ve      2.553E-11
    X_U6.vlim   -5.417E-05
    X_U6.vlp    -2.206E-11
    X_U6.vln    -2.195E-11

    TOTAL POWER DISSIPATION   1.72E+01  WATTS


**** 07/03/23 18:54:54 **** PSpice 22.1.0 (6 October 2022) **** ID# 0 ********

 ** Profile: "SCHEMATIC1-sim_MontCarl"  [ C:\Users\maria\OneDrive - Technical University of Cluj-Napoca\Desktop\PROIECT_CAD_UwU\Nasca


 ****     SORTED DEVIATIONS OF V(OUT)      TEMPERATURE =   27.000 DEG C

                      MONTE CARLO SUMMARY

******************************************************************************





Mean Deviation =    7.8193E-03
Sigma          =     .0891

 RUN                    MAX DEVIATION FROM NOMINAL

Pass    3                .1863  (2.09 sigma)  lower  at T =    2.0000E-06
                        (  83.133% of Nominal)

Pass   19                .173   (1.94 sigma)  higher  at T =    2.0000E-06
                        ( 115.66% of Nominal)

Pass   15                .1555  (1.75 sigma)  higher  at T =    2.0000E-06
                        ( 114.08% of Nominal)

Pass   11                .1125  (1.26 sigma)  lower  at T =    2.0000E-06
                        (  89.82 % of Nominal)

Pass   17                .1051  (1.18 sigma)  higher  at T =    2.0000E-06
                        ( 109.51% of Nominal)

Pass    9                .0925  (1.04 sigma)  lower  at T =    2.0000E-06
                        (  91.629% of Nominal)

Pass    2                .0862  ( .97 sigma)  higher  at T =    2.0000E-06
                        ( 107.8 % of Nominal)

Pass   16                .0759  ( .85 sigma)  higher  at T =    2.0000E-06
                        ( 106.87% of Nominal)

Pass   14                .074   ( .83 sigma)  lower  at T =    2.0000E-06
                        (  93.303% of Nominal)

Pass   10                .0562  ( .63 sigma)  lower  at T =    2.0000E-06
                        (  94.913% of Nominal)

Pass   12                .0538  ( .60 sigma)  lower  at T =    2.0000E-06
                        (  95.125% of Nominal)

Pass   20                .0527  ( .59 sigma)  higher  at T =    2.0000E-06
                        ( 104.77% of Nominal)

Pass   18                .0291  ( .33 sigma)  higher  at T =    2.0000E-06
                        ( 102.63% of Nominal)

Pass    5                .0278  ( .31 sigma)  higher  at T =    2.0000E-06
                        ( 102.51% of Nominal)

Pass    6                .0251  ( .28 sigma)  higher  at T =    2.0000E-06
                        ( 102.27% of Nominal)

Pass    7                .0242  ( .27 sigma)  lower  at T =    2.0000E-06
                        (  97.813% of Nominal)

Pass    4                .0208  ( .23 sigma)  higher  at T =    2.0000E-06
                        ( 101.88% of Nominal)

Pass   13              7.0975E-03  ( .08 sigma)  lower  at T =    2.0000E-06
                        (  99.358% of Nominal)

Pass    8              4.0708E-03  ( .05 sigma)  higher  at T =    2.0000E-06
                        ( 100.37% of Nominal)



          JOB CONCLUDED

**** 07/03/23 18:54:54 **** PSpice 22.1.0 (6 October 2022) **** ID# 0 ********

 ** Profile: "SCHEMATIC1-sim_MontCarl"  [ C:\Users\maria\OneDrive - Technical University of Cluj-Napoca\Desktop\PROIECT_CAD_UwU\Nasca


 ****     JOB STATISTICS SUMMARY


******************************************************************************



  License check-out time            =        7.44
  Total job time (using Solver 1)   =         .75
