
**** 07/03/23 21:23:04 **** PSpice 22.1.0 (6 October 2022) **** ID# 0 ********

 ** Profile: "SCHEMATIC1-simulare_diferential"  [ c:\users\maria\onedrive - technical university of cluj-napoca\desktop\proiect_cad_u


 ****     CIRCUIT DESCRIPTION


******************************************************************************




** Creating circuit file "simulare_diferential.cir" 
** WARNING: THIS AUTOMATICALLY GENERATED FILE MAY BE OVERWRITTEN BY SUBSEQUENT SIMULATIONS

*Libraries: 
* Profile Libraries :
* Local Libraries :
* From [PSPICE NETLIST] section of C:\SPB_Data\cdssetup\OrCAD_PSpice\22.1.0\PSpice.ini file:
.lib "C:\Users\maria\OneDrive - Technical University of Cluj-Napoca\Desktop\PROIECT_CAD_UwU\NascaMarianProiectCAD-PSpiceFiles\SCHEM"
+ "ATIC1\DiodaAlbastra.lib" 
.lib "nom.lib" 

*Analysis directives: 
.DC LIN PARAM r 14k 24k 1k 
.OPTIONS ADVCONV
.PROBE64 V(alias(*)) I(alias(*)) W(alias(*)) D(alias(*)) NOISE(alias(*)) 
.INC "..\SCHEMATIC1.net" 



**** INCLUDING SCHEMATIC1.net ****
* source NASCAMARIANPROIECTCAD
.EXTERNAL OUTPUT +VCC
.EXTERNAL OUTPUT -VCC
Q_Q1         N14397 N14397 +VCC Q2SA562
Q_Q2         N14486 N14397 +VCC Q2SA562
R_RezistentaSenzor         0 N14486 R_RezistentaSenzor {r} TC=0,0 
.model        R_RezistentaSenzor RES R=1 DEV=0.5% TC1=0 TC2=0
V_V1         +VCC 0 15Vdc
V_V2         -VCC 0 -15Vdc
X_U2         N15935 VREF +VCC -VCC VREF LM118
R_R6         +VCC N15935 R_R6 1.04k TC=0,0 
.model        R_R6 RES R=1 DEV=0.5% TC1=0 TC2=0
R_R7         0 N15935 R_R7 1.06k TC=0,0 
.model        R_R7 RES R=1 DEV=0.5% TC1=0 TC2=0
X_U3         N16344 N16580 +VCC -VCC N16671 LM118
R_R4         N15621 N16344 R_R4 2k TC=0,0 
.model        R_R4 RES R=1 DEV=0.5% TC1=0 TC2=0
R_R5         0 N16344  4.7k TC=0,0 
R_R3         N16580 N16671 R_R3 4.7k TC=0,0 
.model        R_R3 RES R=1 DEV=0.5% TC1=0 TC2=0
R_R2         VREF N16580 R_R2 2k TC=0,0 
.model        R_R2 RES R=1 DEV=0.5% TC1=0 TC2=0
X_U4         N14486 N15621 +VCC -VCC N15621 LM118
X_U5         N18284 N16671 +VCC -VCC OUT2 LM118
R_R11         0 N18090 R_R11 10 TC=0,0 
.model        R_R11 RES R=1 DEV=0.5% TC1=0 TC2=0
R_R10         +VCC N18090 R_R10 3.97 TC=0,0 
.model        R_R10 RES R=1 DEV=0.5% TC1=0 TC2=0
X_U6         N18090 VREF2 +VCC -VCC VREF2 LM118
R_R8         VREF2 N18284 R_R8 1k TC=0,0 
.model        R_R8 RES R=1 DEV=0.5% TC1=0 TC2=0
R_R9         N18284 OUT2 R_R9 4.27k TC=0,0 
.model        R_R9 RES R=1 DEV=0.5% TC1=0 TC2=0
V_V3         N18859 0 15V
D_D1         N18859 N18863 DiodaAlbastra 
R_RdiodaTest         0 N18863  630 TC=0,0 
R_R12         OUT2 N20331 R_R12 402 TC=0,0 
.model        R_R12 RES R=1 DEV=0.5% TC1=0 TC2=0
D_D2         N198520 0 DiodaAlbastra 
Q_Q3         N20016 N20012 0 Q2N1566
R_RLimitare         OUT2 N20012 R_RLimitare 1k TC=0,0 
.model        R_RLimitare RES R=1 DEV=0.5% TC1=0 TC2=0
R_R14         N20016 +VCC R_R14 3.4k TC=0,0 
.model        R_R14 RES R=1 DEV=0.5% TC1=0 TC2=0
R_R13         N20331 N198520 R_R13 229 TC=0,0 
.model        R_R13 RES R=1 DEV=0.5% TC1=0 TC2=0
R_R0         N204421 N14397 R_R0 20k TC=0,0 
.model        R_R0 RES R=1 DEV=0.5% TC1=0 TC2=0
R_R1         0 N204421 R_R1 6.49k TC=0,0 
.model        R_R1 RES R=1 DEV=0.5% TC1=0 TC2=0
.PARAM  r=14k

**** RESUMING simulare_diferential.cir ****
.END

**** 07/03/23 21:23:04 **** PSpice 22.1.0 (6 October 2022) **** ID# 0 ********

 ** Profile: "SCHEMATIC1-simulare_diferential"  [ c:\users\maria\onedrive - technical university of cluj-napoca\desktop\proiect_cad_u


 ****     Diode MODEL PARAMETERS


******************************************************************************




               DiodaAlbastra   X_U2.dx         X_U2.dy         X_U3.dx         
          IS   47.006000E-21  800.000000E-18  800.000000E-18  800.000000E-18 
           N    2.8335                                                       
          RS   15.45            1               1.000000E-03    1            
         CJO                                   10.000000E-12                 


               X_U3.dy         X_U4.dx         X_U4.dy         X_U5.dx         
          IS  800.000000E-18  800.000000E-18  800.000000E-18  800.000000E-18 
          RS    1.000000E-03    1               1.000000E-03    1            
         CJO   10.000000E-12                   10.000000E-12                 


               X_U5.dy         X_U6.dx         X_U6.dy         
          IS  800.000000E-18  800.000000E-18  800.000000E-18 
          RS    1.000000E-03    1               1.000000E-03 
         CJO   10.000000E-12                   10.000000E-12 


**** 07/03/23 21:23:04 **** PSpice 22.1.0 (6 October 2022) **** ID# 0 ********

 ** Profile: "SCHEMATIC1-simulare_diferential"  [ c:\users\maria\onedrive - technical university of cluj-napoca\desktop\proiect_cad_u


 ****     BJT MODEL PARAMETERS


******************************************************************************




               Q2SA562         Q2N1566         X_U2.qx         X_U3.qx         
               PNP             NPN             NPN             NPN             
       LEVEL    1               1               1               1            
          IS    2.148000E-12   14.340000E-15  800.000000E-18  800.000000E-18 
          BF  162.9           173.4             5.833000E+03    5.833000E+03 
          NF    1               1               1               1            
         VAF  100              74.03                                         
         IKF     .8773           .2689                                       
         ISE    5.013000E-12   14.340000E-15                                 
          NE    1.655           1.272                                        
          BR   10.18            6.458           1               1            
          NR    1               1               1               1            
         VAR  100                                                            
         IKR    1.838                                                        
         ISC   28.010000E-12                                                 
          NC    1.288                                                        
          NK     .5629                                                       
         ISS    0               0               0               0            
          RB                   10                                            
          RE    0               0               0               0            
          RC     .4968          1               0               0            
         CJE    5.000000E-12   22.010000E-12    0               0            
         VJE     .75             .75             .75             .75         
         MJE     .3333           .377                                        
         CJC   27.040000E-12    9.393000E-12    0               0            
         VJC     .75             .75             .75             .75         
         MJC     .3333           .3416           .33             .33         
        XCJC    1               1               1               1            
         CJS    0               0               0               0            
         VJS     .75             .75             .75             .75         
          TF  767.900000E-12  409.700000E-12                                 
         XTF                    3                                            
         VTF   10               1.7                                          
         ITF    1                .6                                          
          TR   10.000000E-09   48.390000E-09                                 
         XTB    1.5             1.5                                          
          KF    0               0               0               0            
          AF    1               1               1               1            
          CN    2.2             2.42            2.42            2.42         
           D     .52             .87             .87             .87         


               X_U4.qx         X_U5.qx         X_U6.qx         
               NPN             NPN             NPN             
       LEVEL    1               1               1            
          IS  800.000000E-18  800.000000E-18  800.000000E-18 
          BF    5.833000E+03    5.833000E+03    5.833000E+03 
          NF    1               1               1            
          BR    1               1               1            
          NR    1               1               1            
         ISS    0               0               0            
          RE    0               0               0            
          RC    0               0               0            
         CJE    0               0               0            
         VJE     .75             .75             .75         
         CJC    0               0               0            
         VJC     .75             .75             .75         
         MJC     .33             .33             .33         
        XCJC    1               1               1            
         CJS    0               0               0            
         VJS     .75             .75             .75         
          KF    0               0               0            
          AF    1               1               1            
          CN    2.42            2.42            2.42         
           D     .87             .87             .87         


**** 07/03/23 21:23:04 **** PSpice 22.1.0 (6 October 2022) **** ID# 0 ********

 ** Profile: "SCHEMATIC1-simulare_diferential"  [ c:\users\maria\onedrive - technical university of cluj-napoca\desktop\proiect_cad_u


 ****     Resistor MODEL PARAMETERS


******************************************************************************




               R_RezistentaSenzor              R_R6            R_R7            
           R    1                               1               1            


               R_R4            R_R3            R_R2            R_R11           
           R    1               1               1               1            


               R_R10           R_R8            R_R9            R_R12           
           R    1               1               1               1            


               R_RLimitare     R_R14           R_R13           R_R0            
           R    1               1               1               1            


               R_R1            
           R    1            



          JOB CONCLUDED

**** 07/03/23 21:23:04 **** PSpice 22.1.0 (6 October 2022) **** ID# 0 ********

 ** Profile: "SCHEMATIC1-simulare_diferential"  [ c:\users\maria\onedrive - technical university of cluj-napoca\desktop\proiect_cad_u


 ****     JOB STATISTICS SUMMARY


******************************************************************************



  Total job time (using Solver 1)   =         .05
